  Page 1                                    Fri Dec  1 10:01:08 2023

  ******************************************************************
  *                           E P A N E T                          *
  *                   Hydraulic and Water Quality                  *
  *                   Analysis for Pipe Networks                   *
  *                         Version 2.2                            *
  ******************************************************************
  
  Analysis begun Fri Dec  1 10:01:08 2023

   
  Node Results:
  ----------------------------------------------
                     Demand      Head  Pressure
  Node                 m3/h         m         m
  ----------------------------------------------
  3661                 0.00    428.86     50.72
  482                  0.00    428.82     82.82
  661                  0.00    428.46     98.46
  6610                 0.00    423.84     -1.28
  6611                 0.00    427.15     92.15
  6612                 0.00    426.34     63.97
  6613                 0.00    425.58     70.58
  6615                 0.00    428.83     89.83
  6616                 0.00    428.72     67.72
  6617                 0.00    428.80     85.80
  6618                 0.00    428.80     80.80
  662                  0.00    428.45    100.45
  6620                 0.00    428.72    120.72
  6621                 0.00    428.72    100.72
  6622                 0.00    428.72     91.72
  6623                 0.00    428.72     77.72
  6624                 0.00    428.72     76.72
  6625                 0.00    428.72    116.72
  6626                 0.00    428.72    107.72
  6627                 0.00    428.46    107.46
  6628                 0.00    426.92     87.92
  6629                 0.00    428.15     88.15
  663                  0.00    428.09     87.09
  6630                 0.00    428.32      3.20
  6632                 0.00    428.40     88.40
  6633                 0.00    428.78     66.14
  6634                 0.00    428.81     57.81
  6635                 0.00    428.82     76.82
  6636                 0.00    428.82     72.82
  6637                 0.00    428.82     61.82
  6639                 0.00    425.37     65.37
  664                  0.00    427.95     79.95
  6640                 0.00    424.91     64.91
  6641                 0.00    425.73     67.05
  6642                 0.00    425.62     69.62
  6643                 0.00    427.19     75.19
  6644                 0.00    427.45     75.45
  6645                 0.00    427.54     77.54
  6646                 0.00    427.92     80.90
  6648                 0.00    427.92     81.91
  6649                 0.00    427.77     88.77
  665                  0.00    427.87     82.87
  666                  0.00    428.32     88.32
  6665                 0.00    428.82     63.68
  6666                 0.00    428.82     61.16
  667                  0.00    427.42     75.42
  668                  0.00    428.46     98.46
  669                  0.00    428.13     83.13
  1                    0.00    428.62     98.62
  10                  72.00    426.73     74.73
  100                155.00    425.57     70.57
  100B                81.00    424.44     66.44
  101                151.00    424.94     71.94
  103                  0.00    427.37     88.37
  104                  0.00    427.37     88.37
  105                  0.00    425.58     70.58
  106                 54.00    425.51     70.51
  107                  0.00    428.83     89.83
  108                  0.00    428.83     93.27
  109                  0.00    428.83     91.83
  11B                  0.00    427.83     84.83
  110                 71.00    428.80     82.80
  111                  0.00    428.80     90.82
  112                  0.00    428.80     86.80
  113                  0.00    428.80    105.80
  114                  0.00    428.80     80.80
  115                  0.00    428.80     82.80
  116                  0.00    428.80     83.80
  117                  0.00    428.80     85.80
  118                  0.00    428.80     89.80
  119                  0.00    428.80    105.99
  12                  47.00    427.63     97.29
  121                  0.00    428.80     78.80
  122                  0.00    428.80     81.80
  123                  0.00    428.80     82.80
  125                  0.00    428.80     77.80
  126                  0.00    428.80     80.80
  127                  0.00    428.80     85.47
  128                  0.00    428.70     66.70
  129                  0.00    428.53     72.53
  130                119.00    428.46     87.38
  130B                67.00    428.49     75.49
  132                  0.00    428.46     95.46
  134                  0.00    428.46    107.46
  135                  0.00    428.46    112.46
  137                  0.00    428.46    119.46
  139                  0.00    428.46     68.46
  14                   0.00    427.37     89.37
  140                  0.00    428.46     77.46
  141                  0.00    428.46     76.46
  142                  0.00    428.46     67.46
  143                  0.00    428.46     87.49
  144                 84.00    428.60     69.60
  146                  0.00    428.72     82.72
  147                  0.00    428.72    107.72
  148                  0.00    428.72     95.72
  149                  0.00    428.72    115.51
  15                 213.00    426.54     91.54
  150                  0.00    428.72    120.65
  151                  0.00    428.72    123.48
  152                  0.00    428.72    118.70
  153                  0.00    428.72    118.72
  154                  0.00    428.72    103.72
  157                  0.00    428.72    125.72
  158A                 0.00    428.72    107.72
  158B                 0.00    428.72    107.72
  16B                  0.00    427.41     93.41
  160                  0.00    428.82     61.82
  162                  0.00    428.82     60.82
  163                  0.00    428.82     54.82
  164                  0.00    428.82     69.16
  165                  0.00    428.82     67.52
  166                  0.00    428.82     67.81
  167                  0.00    428.82     58.18
  169                  0.00    428.82     62.32
  17A                  0.00    427.15     92.15
  170                  0.00    428.82     69.82
  17B                  0.00    427.15     92.15
  171                  0.00    428.82     76.82
  172                  0.00    428.82     88.82
  18B                  0.00    427.15    102.15
  19                   0.00    428.78     70.78
  2                    0.00    428.49    102.49
  20                   0.00    428.86     64.86
  2002                 0.00    428.13     78.13
  2003                 0.00    428.13     78.13
  21                   0.00    428.85     66.12
  22                   0.00    428.85     67.25
  222                  0.00    428.84     78.84
  24                   0.00    428.83     84.83
  25                   0.00    428.82     83.82
  26                   0.00    428.80     80.80
  27                   0.00    428.80     78.80
  28                   0.00    428.78     80.78
  29                   0.00    428.73     72.73
  3                    0.00    428.30     87.95
  30                   0.00    428.72     67.72
  3002                 0.00    428.86     42.86
  3004                 0.00    428.86     42.86
  3005                 0.00    428.86     42.86
  3008                 0.00    428.86     43.86
  3012                 0.00    428.86     58.13
  3013                 0.00    428.86     63.93
  3016                 0.00    428.87     63.87
  3017               139.00    428.88     46.88
  3018                70.00    428.58     51.58
  3019                 0.00    428.86     59.47
  3020                 0.00    428.86     60.75
  3024                 0.00    428.86     63.92
  31                   0.00    428.72     70.93
  3152                 0.00    428.86     62.66
  32                   0.00    428.72     70.72
  34                   0.00    428.72     77.70
  35                   0.00    428.72     91.72
  36                   0.00    428.72    100.72
  39                   0.00    428.72    115.72
  41                   0.00    428.72    121.72
  46                 187.00    428.82     52.82
  47                   0.00    428.82     70.64
  48                   0.00    428.82     84.82
  49                   0.00    428.82     76.82
  5                    0.00    428.19     81.19
  52                   0.00    428.82     77.82
  53                 150.00    425.40     69.40
  54                   0.00    428.72     83.72
  55                   0.00    428.62     98.62
  56                   0.00    428.62     94.62
  58                   0.00    428.62     95.62
  59                   0.00    428.62     99.62
  6                    0.00    427.45     75.45
  60                   0.00    428.30     83.30
  61                   0.00    428.30     89.30
  62                 106.00    423.18     69.18
  64                   0.00    428.43     97.43
  65                   0.00    428.40     88.40
  66                   0.00    428.40     89.40
  67                   0.00    428.35     96.35
  68                   0.00    428.32     89.32
  69                   0.00    428.32     77.32
  7                    0.00    428.01     75.01
  70                   0.00    428.05     88.05
  71                  95.00    426.01     89.01
  72                   0.00    427.34     71.34
  73                   0.00    427.14     72.14
  77                   0.00    427.34     71.34
  78                   0.00    427.34     87.20
  79                   0.00    428.01     75.01
  8                    0.00    427.54     77.54
  80                  95.00    427.92     78.92
  81                   0.00    427.92     68.92
  82                   0.00    427.92     69.92
  85                  55.00    426.68     87.68
  86                   0.00    426.92     89.92
  87                 115.00    426.54     66.54
  88                   0.00    426.34     73.34
  89                  82.00    425.91     58.91
  90                   0.00    425.62     69.62
  91                   0.00    425.37     53.37
  92                   0.00    423.84     63.84
  91B                224.00    423.32     63.32
  94                   0.00    427.77     88.77
  95                   0.00    427.55     84.55
  97                   0.00    427.40     96.40
  99                 147.00    423.21     73.21
  74                   0.00    427.08     68.37
  1074                 0.00    427.08     69.08
  11A                 74.00    427.33     84.33
  1011                 0.00    427.40     84.40
  0                -2653.00    429.00      0.00  Reservoir
   
   
  Link Results:
  ----------------------------------------------
                       Flow  Velocity  Headloss
  Link                 m3/h       m/s    /1000m
  ----------------------------------------------
  TU1                 -0.00      0.00      0.00
  TU10                 0.00      0.00      0.00
  TU100              150.00      0.33      0.24
  TU101              150.00      0.21      0.08
  TU102                0.00      0.00      0.00
  TU103              150.00      0.21      0.08
  TU104              150.00      0.21      0.08
  TU105             1616.00      0.71      0.36
  TU106             1616.00      0.71      0.36
  TU107                0.00      0.00      0.00
  TU108             1616.00      0.71      0.36
  TU109             1766.00      0.77      0.42
  TU11               205.00      0.94      2.45
  TU110             1766.00      0.77      0.42
  TU111               -0.00      0.00      0.00
  TU112               -0.00      0.00      0.00
  TU113                0.00      0.00      0.00
  TU114                0.00      0.00      0.00
  TU115             1766.00      0.62      0.25
  TU116             1766.00      0.62      0.25
  TU117              150.00      1.62     11.14
  TU118                0.00      0.00      0.00
  TU119             1766.00      0.62      0.25
  TU12                 0.00      0.00      0.00
  TU120             1916.00      0.68      0.30
  TU121                0.00      0.00      0.00
  TU122                0.00      0.00      0.00
  TU123               -0.00      0.00      0.00
  TU124                0.00      0.00      0.00
  TU125               -0.00      0.00      0.00
  TU126               -0.00      0.00      0.00
  TU127               -0.00      0.00      0.00
  TU128                0.00      0.00      0.00
  TU129                0.00      0.00      0.00
  TU13                 0.00      0.00      0.00
  TU130                0.00      0.00      0.00
  TU131               -0.00      0.00      0.00
  TU132                0.00      0.00      0.00
  TU133               -0.00      0.00      0.00
  TU134              224.00      2.42     23.39
  TU135               -0.00      0.00      0.00
  TU136                0.00      0.00      0.00
  TU137                0.00      0.00      0.00
  TU138                0.00      0.00      0.00
  TU139                0.00      0.00      0.00
  TU14               205.00      0.45      0.42
  TU140              257.00      0.25      0.09
  TU141              106.00      1.78     17.35
  TU142              106.00      0.29      0.21
  TU143               -0.00      0.00      0.00
  TU144               81.00      0.87      3.61
  TU145              224.00      1.55      7.90
  TU146              305.00      1.33      4.50
  TU147              305.00      0.82      1.41
  TU148               -0.00      0.00      0.00
  TU149              155.00      1.07      4.02
  TU15                -0.00      0.00      0.00
  TU150              155.00      1.07      4.02
  TU151              460.00      0.65      0.62
  TU152              147.00      1.68     12.31
  TU15301            804.00      1.14      1.74
  TU15302            804.00      1.14      1.74
  TU1074               0.00      0.00      0.00
  TU154              804.00      0.79      0.72
  TU155               72.00      1.21      8.53
  TU156              876.00      0.86      0.84
  TU157              982.00      0.96      1.04
  TU158                0.00      0.00      0.00
  TU159              982.00      0.96      1.03
  TU16              2653.00      0.48      0.11
  TU160                0.00      0.00      0.00
  TU161              982.00      0.96      1.03
  TU162              634.00      0.46      0.22
  TU163              634.00      0.46      0.22
  TU164              634.00      0.46      0.22
  TU166               -0.00      0.00      0.00
  TU167               -0.00      0.00      0.00
  TU168                0.00      0.00      0.00
  TU169                0.00      0.00      0.00
  TU17                 0.00      0.00      0.00
  TU170               95.00      0.43      0.61
  TU171              539.00      0.39      0.16
  TU17201             74.00      0.97      4.94
  TU17202              0.00      0.00      0.00
  TU1011A             74.00      0.97      4.94
  TU173               74.00      0.54      1.19
  TU174               -0.00      0.00      0.00
  TU175               74.00      0.34      0.39
  TU176              465.00      0.46      0.26
  TU177              465.00      0.46      0.26
  TU178              418.00      0.41      0.22
  TU179              213.00      0.60      0.83
  TU18                 0.00      0.00      0.00
  TU180                0.00      0.00      0.00
  TU181                0.00      0.00      0.00
  TU182                0.00      0.00      0.00
  TU183                0.00      0.00      0.00
  TU184                0.00      0.00      0.00
  TU185               -0.00      0.00      0.00
  TU186               -0.00      0.00      0.00
  TU187               -0.00      0.00      0.00
  TU188              341.00      0.25      0.07
  TU189              341.00      0.25      0.07
  TU19                 0.00      0.00      0.00
  TU190               -0.00      0.00      0.00
  TU191                0.00      0.00      0.00
  TU192                0.00      0.00      0.00
  TU193                0.00      0.00      0.00
  TU194               -0.00      0.00      0.00
  TU195                0.00      0.00      0.00
  TU196                0.00      0.00      0.00
  TU197               -0.00      0.00      0.00
  TU198                0.00      0.00      0.00
  TU199                0.00      0.00      0.00
  TU2                213.00      2.43     24.44
  TU20                 0.00      0.00      0.00
  TU200               -0.00      0.00      0.00
  TU201                0.00      0.00      0.00
  TU203               70.00      1.18      8.11
  TU204              341.00      0.15      0.02
  TU205              341.00      0.15      0.02
  TU21                -0.00      0.00      0.00
  TU22               341.00      0.19      0.04
  TU23               341.00      0.19      0.04
  TU24               341.00      0.19      0.04
  TU25               341.00      0.19      0.04
  TU26               270.00      0.27      0.10
  TU27               270.00      0.27      0.10
  TU28               270.00      0.27      0.10
  TU29               270.00      0.27      0.10
  TU3                  0.00      0.00      0.00
  TU30                 0.00      0.00      0.00
  TU31                -0.00      0.00      0.00
  TU32                 0.00      0.00      0.00
  TU33                 0.00      0.00      0.00
  TU34                 0.00      0.00      0.00
  TU35                -0.00      0.00      0.00
  TU36                 0.00      0.00      0.00
  TU37                 0.00      0.00      0.00
  TU38                 0.00      0.00      0.00
  TU39                -0.00      0.00      0.00
  TU4                689.00      0.97      1.31
  TU40                 0.00      0.00      0.00
  TU41                -0.00      0.00      0.00
  TU42                 0.00      0.00      0.00
  TU43                -0.00      0.00      0.00
  TU44                -0.00      0.00      0.00
  TU45                71.00      0.10      0.02
  TU46                71.00      0.10      0.02
  TU47                -0.00      0.00      0.00
  TU48                 0.00      0.00      0.00
  TU49                 0.00      0.00      0.00
  TU5                689.00      0.97      1.31
  TU50                 0.00      0.00      0.00
  TU51                 0.00      0.00      0.00
  TU52                 0.00      0.00      0.00
  TU53                 0.00      0.00      0.00
  TU54                 0.00      0.00      0.00
  TU55                 0.00      0.00      0.00
  TU56                 0.00      0.00      0.00
  TU57                 0.00      0.00      0.00
  TU58                 0.00      0.00      0.00
  TU59                 0.00      0.00      0.00
  TU6                 -0.00      0.00      0.00
  TU60                -0.00      0.00      0.00
  TU61                 0.00      0.00      0.00
  TU62                -0.00      0.00      0.00
  TU63                 0.00      0.00      0.00
  TU64                 0.00      0.00      0.00
  TU65                 0.00      0.00      0.00
  TU66                 0.00      0.00      0.00
  TU67                 0.00      0.00      0.00
  TU68                 0.00      0.00      0.00
  TU69                 0.00      0.00      0.00
  TU7                  0.00      0.00      0.00
  TU70                 0.00      0.00      0.00
  TU71                 0.00      0.00      0.00
  TU72                 0.00      0.00      0.00
  TU73               119.00      0.26      0.16
  TU74               186.00      0.41      0.35
  TU75               186.00      0.41      0.35
  TU76               270.00      0.60      0.70
  TU77               270.00      0.60      0.70
  TU78                 0.00      0.00      0.00
  TU79                 0.00      0.00      0.00
  TU8                151.00      1.63     11.28
  TU80                 0.00      0.00      0.00
  TU81                 0.00      0.00      0.00
  TU82                 0.00      0.00      0.00
  TU83                 0.00      0.00      0.00
  TU84                 0.00      0.00      0.00
  TU85                 0.00      0.00      0.00
  TU86                 0.00      0.00      0.00
  TU87                 0.00      0.00      0.00
  TU88                 0.00      0.00      0.00
  TU89                55.00      0.98      5.98
  TU9                 54.00      0.91      5.05
  TU90                 0.00      0.00      0.00
  TU91                55.00      0.63      2.05
  TU92                55.00      0.25      0.23
  TU93                55.00      0.16      0.07
  TU94                95.00      1.08      5.53
  TU95               150.00      0.43      0.44
  TU96                 0.00      0.00      0.00
  TU97                 0.00      0.00      0.00
  TU98                 0.00      0.00      0.00
  TU99               150.00      0.33      0.24
  TU4000               0.00      0.00      0.00
   
  Analysis ended Fri Dec  1 10:01:08 2023
