  Page 1                                    Fri Dec  1 09:59:36 2023

  ******************************************************************
  *                           E P A N E T                          *
  *                   Hydraulic and Water Quality                  *
  *                   Analysis for Pipe Networks                   *
  *                         Version 2.2                            *
  ******************************************************************
  
  Analysis begun Fri Dec  1 09:59:36 2023

   
  Node Results:
  ----------------------------------------------
                     Demand      Head  Pressure
  Node                 m3/h         m         m
  ----------------------------------------------
  3661                 0.00    428.91     50.77
  482                  0.00    428.27     82.27
  661                  0.00    428.78     98.78
  6610                 0.00    428.59      3.47
  6611                 0.00    428.40     93.40
  6612                 0.00    428.62     66.25
  6613                 0.00    427.37     72.37
  6615                 0.00    428.88     89.88
  6616                 0.00    428.81     67.81
  6617                 0.00    428.81     85.81
  6618                 0.00    428.85     80.85
  662                  0.00    428.82    100.82
  6620                 0.00    428.76    120.76
  6621                 0.00    428.76    100.76
  6622                 0.00    428.76     91.76
  6623                 0.00    428.76     77.76
  6624                 0.00    428.77     76.77
  6625                 0.00    428.59    116.59
  6626                 0.00    428.69    107.69
  6627                 0.00    428.51    107.51
  6628                 0.00    428.82     89.82
  6629                 0.00    428.82     88.82
  663                  0.00    428.72     87.72
  6630                 0.00    428.82      3.70
  6632                 0.00    428.82     88.82
  6633                 0.00    428.90     66.26
  6634                 0.00    428.91     57.91
  6635                 0.00    428.66     76.66
  6636                 0.00    428.66     72.66
  6637                 0.00    428.58     61.58
  6639                 0.00    428.59     68.59
  664                  0.00    428.61     80.61
  6640                 0.00    428.59     68.59
  6641                 0.00    428.59     69.91
  6642                 0.00    428.59     72.59
  6643                 0.00    428.66     76.66
  6644                 0.00    428.68     76.68
  6645                 0.00    428.69     78.69
  6646                 0.00    428.04     81.02
  6648                 0.00    428.04     82.03
  6649                 0.00    428.45     89.45
  665                  0.00    428.55     83.55
  666                  0.00    428.82     88.82
  6665                 0.00    427.78     62.64
  6666                 0.00    428.49     60.83
  667                  0.00    428.68     76.68
  668                  0.00    428.78     98.78
  669                  0.00    428.82     83.82
  1                   57.00    428.86     98.86
  10                  65.00    428.28     76.28
  100                  0.00    428.59     73.59
  100B                 0.00    428.59     70.59
  101                 97.00    427.09     74.09
  103                  0.00    428.38     89.38
  104                  0.00    428.38     89.38
  105                  0.00    427.37     72.37
  106                 53.00    427.30     72.30
  107                  0.00    428.88     89.88
  108                  0.00    428.88     93.32
  109                  0.00    428.88     91.88
  11B                 95.00    428.52     85.52
  110                  0.00    428.84     82.84
  111                  0.00    428.84     90.86
  112                  0.00    428.84     86.84
  113                  0.00    428.83    105.83
  114                  0.00    428.81     80.81
  115                  0.00    428.81     82.81
  116                  0.00    428.81     83.81
  117                  0.00    428.81     85.81
  118                  0.00    428.81     89.81
  119                  0.00    428.81    106.00
  12                 136.00    428.44     98.10
  121                  0.00    428.81     78.81
  122                  0.00    428.81     81.81
  123                  0.00    428.81     82.81
  125                  0.00    428.81     77.81
  126                 59.00    428.72     80.72
  127                  0.00    428.72     85.39
  128                  0.00    428.81     66.81
  129                  0.00    428.80     72.80
  130                  0.00    428.79     87.71
  130B                 0.00    428.80     75.80
  132                  0.00    428.78     95.78
  134                  0.00    428.51    107.51
  135                 52.00    428.02    112.02
  137                  0.00    428.02    119.02
  139                  0.00    428.78     68.78
  14                   0.00    428.38     90.38
  140                  0.00    428.78     77.78
  141                  0.00    428.78     76.78
  142                  0.00    428.78     67.78
  143                  0.00    428.78     87.81
  144                  0.00    428.81     69.81
  146                  0.00    428.73     82.73
  147                  0.00    428.69    107.69
  148                  0.00    428.72     95.72
  149                  0.00    428.59    115.38
  15                   0.00    428.40     93.40
  150                  0.00    428.48    120.41
  151                  0.00    428.24    123.00
  152                 67.00    426.40    116.38
  153                  0.00    427.02    117.02
  154                  0.00    428.76    103.76
  157                  0.00    428.76    125.76
  158A                 0.00    428.76    107.76
  158B                 0.00    428.76    107.76
  16B                  0.00    428.40     94.40
  160                 65.00    428.56     61.56
  162                  0.00    428.53     60.53
  163                  0.00    428.49     54.49
  164                  0.00    428.40     68.74
  165                  0.00    428.04     66.74
  166                  0.00    428.05     67.04
  167                137.00    427.47     56.83
  169                  0.00    428.35     61.85
  17A                  0.00    428.40     93.40
  170                  0.00    428.62     69.62
  17B                  0.00    428.40     93.40
  171                  0.00    428.66     76.66
  172                  0.00    428.66     88.66
  18B                  0.00    428.40    103.40
  19                   0.00    428.90     70.90
  2                    0.00    428.83    102.83
  20                   0.00    428.91     64.91
  2002                 0.00    428.82     78.82
  2003                 0.00    428.82     78.82
  21                   0.00    428.91     66.18
  22                   0.00    428.91     67.31
  222                  0.00    428.89     78.89
  24                   0.00    428.88     84.88
  25                   0.00    428.87     83.87
  26                  84.00    428.55     80.55
  27                   0.00    428.86     78.86
  28                   0.00    428.85     80.85
  29                   0.00    428.82     72.82
  3                    0.00    428.78     88.43
  30                   0.00    428.81     67.81
  3002                 0.00    428.91     42.91
  3004                 0.00    428.91     42.91
  3005                 0.00    428.91     42.91
  3008                 0.00    428.91     43.91
  3012                 0.00    428.91     58.18
  3013                 0.00    428.91     63.98
  3016                 0.00    428.92     63.92
  3017               125.00    428.93     46.93
  3018                72.00    428.45     51.45
  3019                 0.00    428.91     59.52
  3020                 0.00    428.91     60.80
  3024                 0.00    428.91     63.97
  31                   0.00    428.78     70.99
  3152                 0.00    428.91     62.71
  32                   0.00    428.80     70.80
  34                  68.00    428.60     77.58
  35                   0.00    428.76     91.76
  36                   0.00    428.76    100.76
  39                   0.00    428.76    115.76
  41                   0.00    428.76    121.76
  46                 167.00    428.70     52.70
  47                   0.00    428.35     70.17
  48                   0.00    428.14     84.14
  49                   0.00    427.15     75.15
  5                    0.00    428.75     81.75
  52                  89.00    427.11     76.11
  53                 120.00    426.65     70.65
  54                   0.00    428.89     83.89
  55                   0.00    428.86     98.86
  56                   0.00    428.86     94.86
  58                   0.00    428.86     95.86
  59                   0.00    428.86     99.86
  6                    0.00    428.68     76.68
  60                   0.00    428.78     83.78
  61                   0.00    428.78     89.78
  62                   0.00    428.68     74.68
  64                   0.00    428.82     97.82
  65                   0.00    428.82     88.82
  66                   0.00    428.82     89.82
  67                   0.00    428.82     96.82
  68                   0.00    428.82     89.82
  69                   0.00    428.82     77.82
  7                    0.00    428.65     75.65
  70                   0.00    428.82     88.82
  71                   0.00    428.82     91.82
  72                   0.00    428.68     72.68
  73                   0.00    428.66     73.66
  77                   0.00    428.68     72.68
  78                   0.00    428.68     88.54
  79                  60.00    428.65     75.65
  8                    0.00    428.69     78.69
  80                   0.00    428.59     79.59
  81                  72.00    426.19     67.19
  82                   0.00    428.04     70.04
  85                   0.00    428.82     89.82
  86                   0.00    428.82     91.82
  87                   0.00    428.63     68.63
  88                   0.00    428.62     75.62
  89                   0.00    428.59     61.59
  90                   0.00    428.59     72.59
  91                   0.00    428.59     56.59
  92                   0.00    428.59     68.59
  91B                  0.00    428.59     68.59
  94                   0.00    428.45     89.45
  95                   0.00    428.24     85.24
  97                   0.00    428.10     97.10
  99                 151.00    425.76     75.76
  74                   0.00    428.65     69.94
  1074                 0.00    428.65     70.65
  11A                 72.00    428.04     85.04
  1011                 0.00    428.10     85.10
  0                -1963.00    429.00      0.00  Reservoir
   
   
  Link Results:
  ----------------------------------------------
                       Flow  Velocity  Headloss
  Link                 m3/h       m/s    /1000m
  ----------------------------------------------
  TU1                 -0.00      0.00      0.00
  TU10                 0.00      0.00      0.00
  TU100                0.00      0.00      0.00
  TU101                0.00      0.00      0.00
  TU102                0.00      0.00      0.00
  TU103                0.00      0.00      0.00
  TU104                0.00      0.00      0.00
  TU105              801.00      0.35      0.10
  TU106              801.00      0.35      0.10
  TU107                0.00      0.00      0.00
  TU108              801.00      0.35      0.10
  TU109              801.00      0.35      0.10
  TU11               150.00      0.69      1.39
  TU110              801.00      0.35      0.10
  TU111               -0.00      0.00      0.00
  TU112               -0.00      0.00      0.00
  TU113                0.00      0.00      0.00
  TU114                0.00      0.00      0.00
  TU115              858.00      0.30      0.07
  TU116              858.00      0.30      0.07
  TU117              120.00      1.30      7.40
  TU118                0.00      0.00      0.00
  TU119              858.00      0.30      0.07
  TU12                 0.00      0.00      0.00
  TU120              978.00      0.35      0.09
  TU121                0.00      0.00      0.00
  TU122                0.00      0.00      0.00
  TU123               -0.00      0.00      0.00
  TU124               89.00      1.02      4.91
  TU125               89.00      0.65      1.67
  TU126               89.00      0.41      0.54
  TU127               89.00      0.41      0.54
  TU128              137.00      0.60      1.04
  TU129              137.00      0.60      1.04
  TU13                 0.00      0.00      0.00
  TU130              137.00      0.60      1.04
  TU131              137.00      0.60      1.04
  TU132                0.00      0.00      0.00
  TU133              137.00      0.60      1.04
  TU134               -0.00      0.00      0.00
  TU135              137.00      0.30      0.20
  TU136              202.00      0.45      0.41
  TU137              291.00      0.41      0.27
  TU138              291.00      0.41      0.27
  TU139              291.00      0.29      0.11
  TU14               150.00      0.33      0.24
  TU140              530.00      0.52      0.33
  TU141                0.00      0.00      0.00
  TU142                0.00      0.00      0.00
  TU143               -0.00      0.00      0.00
  TU144               -0.00      0.00      0.00
  TU145               -0.00      0.00      0.00
  TU146               -0.00      0.00      0.00
  TU147               -0.00      0.00      0.00
  TU148               -0.00      0.00      0.00
  TU149               -0.00      0.00      0.00
  TU15                -0.00      0.00      0.00
  TU150               -0.00      0.00      0.00
  TU151               -0.00      0.00      0.00
  TU152              151.00      1.72     12.93
  TU15301            151.00      0.21      0.08
  TU15302            151.00      0.21      0.08
  TU1074               0.00      0.00      0.00
  TU154              151.00      0.15      0.04
  TU155               65.00      1.09      7.08
  TU156              216.00      0.21      0.07
  TU157              216.00      0.21      0.07
  TU158                0.00      0.00      0.00
  TU159              216.00      0.21      0.07
  TU16              1963.00      0.35      0.06
  TU160                0.00      0.00      0.00
  TU161              216.00      0.21      0.07
  TU162              585.00      0.42      0.19
  TU163              525.00      0.38      0.16
  TU164              585.00      0.42      0.19
  TU166               72.00      1.48     13.99
  TU167               -0.00      0.00      0.00
  TU168                0.00      0.00      0.00
  TU169               72.00      0.61      1.60
  TU17                 0.00      0.00      0.00
  TU170               72.00      0.33      0.37
  TU171              453.00      0.33      0.12
  TU17201             72.00      0.95      4.70
  TU17202              0.00      0.00      0.00
  TU1011A             72.00      0.95      4.70
  TU173               72.00      0.53      1.13
  TU174               -0.00      0.00      0.00
  TU175               72.00      0.33      0.37
  TU176              286.00      0.28      0.11
  TU177              381.00      0.37      0.18
  TU178              150.00      0.15      0.03
  TU179                0.00      0.00      0.00
  TU18                 0.00      0.00      0.00
  TU180                0.00      0.00      0.00
  TU181                0.00      0.00      0.00
  TU182                0.00      0.00      0.00
  TU183                0.00      0.00      0.00
  TU184                0.00      0.00      0.00
  TU185               59.00      0.13      0.04
  TU186              137.00      0.37      0.33
  TU187              137.00      0.30      0.20
  TU188              330.00      0.24      0.07
  TU189              330.00      0.24      0.07
  TU19                 0.00      0.00      0.00
  TU190               67.00      0.88      4.12
  TU191                0.00      0.00      0.00
  TU192                0.00      0.00      0.00
  TU193                0.00      0.00      0.00
  TU194               -0.00      0.00      0.00
  TU195                0.00      0.00      0.00
  TU196                0.00      0.00      0.00
  TU197               -0.00      0.00      0.00
  TU198                0.00      0.00      0.00
  TU199                0.00      0.00      0.00
  TU2                  0.00      0.00      0.00
  TU20                 0.00      0.00      0.00
  TU200               -0.00      0.00      0.00
  TU201                0.00      0.00      0.00
  TU203               72.00      1.21      8.53
  TU204              330.00      0.14      0.02
  TU205              330.00      0.14      0.02
  TU21                67.00      0.56      1.40
  TU22               330.00      0.18      0.04
  TU23               330.00      0.18      0.04
  TU24               330.00      0.18      0.03
  TU25               330.00      0.18      0.04
  TU26               187.00      0.18      0.05
  TU27               187.00      0.18      0.05
  TU28               187.00      0.18      0.05
  TU29               187.00      0.18      0.05
  TU3                  0.00      0.00      0.00
  TU30                 0.00      0.00      0.00
  TU31                 0.00      0.00      0.00
  TU32                 0.00      0.00      0.00
  TU33                 0.00      0.00      0.00
  TU34                 0.00      0.00      0.00
  TU35                -0.00      0.00      0.00
  TU36                 0.00      0.00      0.00
  TU37                 0.00      0.00      0.00
  TU38                 0.00      0.00      0.00
  TU39                -0.00      0.00      0.00
  TU4                151.00      0.21      0.08
  TU40                59.00      0.43      0.79
  TU41                59.00      0.13      0.04
  TU42                 0.00      0.00      0.00
  TU43                59.00      0.08      0.02
  TU44                59.00      0.08      0.02
  TU45                59.00      0.08      0.02
  TU46               143.00      0.20      0.08
  TU47                84.00      1.49     12.97
  TU48                 0.00      0.00      0.00
  TU49                 0.00      0.00      0.00
  TU5                151.00      0.21      0.08
  TU50                 0.00      0.00      0.00
  TU51                 0.00      0.00      0.00
  TU52                 0.00      0.00      0.00
  TU53                 0.00      0.00      0.00
  TU54                 0.00      0.00      0.00
  TU55                 0.00      0.00      0.00
  TU56                 0.00      0.00      0.00
  TU57                 0.00      0.00      0.00
  TU58                68.00      1.21      8.81
  TU59                68.00      0.19      0.11
  TU6                 59.00      0.08      0.02
  TU60                67.00      1.38     12.26
  TU61                 0.00      0.00      0.00
  TU62                67.00      0.36      0.46
  TU63                 0.00      0.00      0.00
  TU64                67.00      0.36      0.46
  TU65                 0.00      0.00      0.00
  TU66                67.00      0.22      0.15
  TU67                67.00      0.19      0.10
  TU68                67.00      0.19      0.10
  TU69               135.00      0.19      0.07
  TU7                  0.00      0.00      0.00
  TU70               135.00      0.19      0.07
  TU71               135.00      0.19      0.07
  TU72                52.00      0.11      0.04
  TU73                52.00      0.11      0.04
  TU74                52.00      0.11      0.04
  TU75                52.00      0.11      0.04
  TU76                52.00      0.11      0.04
  TU77                52.00      0.11      0.04
  TU78                 0.00      0.00      0.00
  TU79                52.00      0.68      2.60
  TU8                 97.00      1.05      5.01
  TU80                 0.00      0.00      0.00
  TU81                52.00      0.44      0.89
  TU82                 0.00      0.00      0.00
  TU83                 0.00      0.00      0.00
  TU84                 0.00      0.00      0.00
  TU85                 0.00      0.00      0.00
  TU86                 0.00      0.00      0.00
  TU87                 0.00      0.00      0.00
  TU88                 0.00      0.00      0.00
  TU89                 0.00      0.00      0.00
  TU9                 53.00      0.89      4.88
  TU90                 0.00      0.00      0.00
  TU91                -0.00      0.00      0.00
  TU92                -0.00      0.00      0.00
  TU93                 0.00      0.00      0.00
  TU94                 0.00      0.00      0.00
  TU95                 0.00      0.00      0.00
  TU96                 0.00      0.00      0.00
  TU97                 0.00      0.00      0.00
  TU98                 0.00      0.00      0.00
  TU99                 0.00      0.00      0.00
  TU4000               0.00      0.00      0.00
   
  Analysis ended Fri Dec  1 09:59:36 2023
