  Page 1                                    Fri Dec  1 10:11:47 2023

  ******************************************************************
  *                           E P A N E T                          *
  *                   Hydraulic and Water Quality                  *
  *                   Analysis for Pipe Networks                   *
  *                         Version 2.2                            *
  ******************************************************************
  
  Analysis begun Fri Dec  1 10:11:47 2023

   
  Node Results:
  ----------------------------------------------
                     Demand      Head  Pressure
  Node                 m3/h         m         m
  ----------------------------------------------
  3661                 0.00    428.96     50.82
  482                  0.00    428.96     82.96
  661                  0.00    428.89     98.89
  6610                 0.00    428.74      3.62
  6611                 0.00    428.23     93.23
  6612                 0.00    428.74     66.37
  6613                 0.00    427.75     72.75
  6615                 0.00    428.94     89.94
  6616                 0.00    428.89     67.89
  6617                 0.00    428.78     85.78
  6618                 0.00    428.92     80.92
  662                  0.00    428.87    100.87
  6620                 0.00    428.83    120.83
  6621                 0.00    428.83    100.83
  6622                 0.00    428.83     91.83
  6623                 0.00    428.83     77.83
  6624                 0.00    428.83     76.83
  6625                 0.00    427.98    115.98
  6626                 0.00    428.46    107.46
  6627                 0.00    428.89    107.89
  6628                 0.00    427.92     88.92
  6629                 0.00    428.57     88.57
  663                  0.00    428.79     87.79
  6630                 0.00    428.73      3.61
  6632                 0.00    428.82     88.82
  6633                 0.00    428.95     66.31
  6634                 0.00    428.96     57.96
  6635                 0.00    428.97     76.97
  6636                 0.00    428.97     72.97
  6637                 0.00    428.96     61.96
  6639                 0.00    428.74     68.74
  664                  0.00    428.71     80.71
  6640                 0.00    428.74     68.74
  6641                 0.00    428.74     70.06
  6642                 0.00    428.74     72.74
  6643                 0.00    428.76     76.76
  6644                 0.00    428.76     76.76
  6645                 0.00    428.77     78.77
  6646                 0.00    428.71     81.69
  6648                 0.00    428.71     82.70
  6649                 0.00    428.65     89.65
  665                  0.00    428.65     83.65
  666                  0.00    428.73     88.73
  6665                 0.00    428.93     63.79
  6666                 0.00    428.95     61.29
  667                  0.00    428.76     76.76
  668                  0.00    428.89     98.89
  669                  0.00    428.43     83.43
  1                    0.00    428.91     98.91
  10                   0.00    428.76     76.76
  100                  0.00    428.74     73.74
  100B                 0.00    428.74     70.74
  101                 60.00    427.63     74.63
  103                  0.00    428.36     89.36
  104                  0.00    428.36     89.36
  105                  0.00    427.75     72.75
  106                 54.00    427.67     72.67
  107                  0.00    428.94     89.94
  108                  0.00    428.94     93.38
  109                  0.00    428.94     91.94
  11B                 82.00    428.61     85.61
  110                  0.00    428.92     82.92
  111                  0.00    428.91     90.93
  112                  0.00    428.91     86.91
  113                  0.00    428.90    105.90
  114                  0.00    428.85     80.85
  115                 64.00    428.78     82.78
  116                  0.00    428.83     83.83
  117                  0.00    428.78     85.78
  118                  0.00    428.78     89.78
  119                  0.00    428.78    105.97
  12                 100.00    428.48     98.14
  121                  0.00    428.88     78.88
  122                  0.00    428.83     81.83
  123                  0.00    428.83     82.83
  125                  0.00    428.88     77.88
  126                  0.00    428.88     80.88
  127                  0.00    428.88     85.55
  128                  0.00    428.89     66.89
  129                  0.00    428.89     72.89
  130                  0.00    428.89     87.81
  130B                 0.00    428.89     75.89
  132                  0.00    428.89     95.89
  134                  0.00    428.89    107.89
  135                  0.00    428.89    112.89
  137                  0.00    428.89    119.89
  139                  0.00    428.89     68.89
  14                   0.00    428.36     90.36
  140                  0.00    428.89     77.89
  141                  0.00    428.89     76.89
  142                  0.00    428.89     67.89
  143                  0.00    428.89     87.92
  144                  0.00    428.89     69.89
  146                  0.00    428.64     82.64
  147                  0.00    428.46    107.46
  148                  0.00    428.61     95.61
  149                 62.00    427.72    114.51
  15                   0.00    428.23     93.23
  150                  0.00    427.75    119.68
  151                 99.00    427.26    122.02
  152                  0.00    427.26    117.24
  153                  0.00    427.26    117.26
  154                  0.00    428.83    103.83
  157                  0.00    428.83    125.83
  158A                 0.00    428.83    107.83
  158B                 0.00    428.83    107.83
  16B                  0.00    428.38     94.38
  160                  0.00    428.96     61.96
  162                  0.00    428.96     60.96
  163                  0.00    428.95     54.95
  164                 53.00    428.93     69.27
  165                  0.00    428.93     67.63
  166                  0.00    428.93     67.92
  167                  0.00    428.93     58.29
  169                  0.00    428.93     62.43
  17A                  0.00    428.13     93.13
  170                  0.00    428.97     69.97
  17B                157.00    428.02     93.02
  171                  0.00    428.97     76.97
  172                  0.00    428.97     88.97
  18B                  0.00    428.02    103.02
  19                   0.00    428.95     70.95
  2                    0.00    428.88    102.88
  20                   0.00    428.96     64.96
  2002                 0.00    428.43     78.43
  2003                 0.00    428.43     78.43
  21                   0.00    428.95     66.22
  22                   0.00    428.95     67.35
  222                 73.00    428.94     78.94
  24                   0.00    428.94     84.94
  25                   0.00    428.93     83.93
  26                   0.00    428.92     80.92
  27                   0.00    428.92     78.92
  28                   0.00    428.91     80.91
  29                   0.00    428.89     72.89
  3                    0.00    428.84     88.49
  30                   0.00    428.89     67.89
  3002                 0.00    428.96     42.96
  3004                 0.00    428.96     42.96
  3005                 0.00    428.96     42.96
  3008                 0.00    428.96     43.96
  3012                 0.00    428.96     58.23
  3013                 0.00    428.96     64.03
  3016                 0.00    428.96     63.96
  3017                 0.00    428.97     46.97
  3018                 0.00    428.97     51.97
  3019                 0.00    428.96     59.57
  3020                 0.00    428.96     60.85
  3024                 0.00    428.96     64.02
  31                   0.00    428.85     71.06
  3152                 0.00    428.96     62.76
  32                   0.00    428.87     70.87
  34                   0.00    428.83     77.81
  35                   0.00    428.83     91.83
  36                   0.00    428.83    100.83
  39                   0.00    428.83    115.83
  41                   0.00    428.83    121.83
  46                   0.00    428.97     52.97
  47                   0.00    428.93     70.75
  48                   0.00    428.96     84.96
  49                   0.00    428.96     76.96
  5                    0.00    428.81     81.81
  52                   0.00    428.96     77.96
  53                   0.00    428.96     72.96
  54                   0.00    428.94     83.94
  55                   0.00    428.91     98.91
  56                   0.00    428.91     94.91
  58                   0.00    428.91     95.91
  59                   0.00    428.91     99.91
  6                    0.00    428.76     76.76
  60                   0.00    428.84     83.84
  61                   0.00    428.84     89.84
  62                   0.00    428.76     74.76
  64                   0.00    428.85     97.85
  65                   0.00    428.82     88.82
  66                   0.00    428.81     89.81
  67                   0.00    428.77     96.77
  68                   0.00    428.73     89.73
  69                   0.00    428.73     77.73
  7                    0.00    428.74     75.74
  70                 150.00    427.92     87.92
  71                   0.00    428.57     91.57
  72                   0.00    428.76     72.76
  73                   0.00    428.76     73.76
  77                   0.00    428.76     72.76
  78                   0.00    428.76     88.62
  79                  44.00    428.74     75.74
  8                   67.00    428.52     78.52
  80                   0.00    428.71     79.71
  81                   0.00    428.71     69.71
  82                   0.00    428.71     70.71
  85                   0.00    427.92     88.92
  86                   0.00    427.92     90.92
  87                 117.00    428.74     68.74
  88                   0.00    428.74     75.74
  89                   0.00    428.74     61.74
  90                   0.00    428.74     72.74
  91                   0.00    428.74     56.74
  92                   0.00    428.74     68.74
  91B                  0.00    428.74     68.74
  94                   0.00    428.65     89.65
  95                   0.00    428.65     85.65
  97                   0.00    428.65     97.65
  99                   0.00    428.74     78.74
  74                   0.00    428.75     70.04
  1074                 0.00    428.75     70.75
  11A                  0.00    428.65     85.65
  1011                 0.00    428.65     85.65
  0                -1182.00    429.00      0.00  Reservoir
   
   
  Link Results:
  ----------------------------------------------
                       Flow  Velocity  Headloss
  Link                 m3/h       m/s    /1000m
  ----------------------------------------------
  TU1                 -0.00      0.00      0.00
  TU10                 0.00      0.00      0.00
  TU100              150.00      0.33      0.24
  TU101              150.00      0.21      0.08
  TU102                0.00      0.00      0.00
  TU103              150.00      0.21      0.08
  TU104              150.00      0.21      0.08
  TU105              681.00      0.30      0.07
  TU106              681.00      0.30      0.07
  TU107                0.00      0.00      0.00
  TU108              681.00      0.30      0.07
  TU109              831.00      0.36      0.11
  TU11               114.00      0.52      0.84
  TU110              831.00      0.36      0.11
  TU111                0.00      0.00      0.00
  TU112               -0.00      0.00      0.00
  TU113                0.00      0.00      0.00
  TU114                0.00      0.00      0.00
  TU115              831.00      0.29      0.06
  TU116              831.00      0.29      0.06
  TU117               -0.00      0.00      0.00
  TU118                0.00      0.00      0.00
  TU119              831.00      0.29      0.06
  TU12                 0.00      0.00      0.00
  TU120              831.00      0.29      0.06
  TU121                0.00      0.00      0.00
  TU122                0.00      0.00      0.00
  TU123               -0.00      0.00      0.00
  TU124                0.00      0.00      0.00
  TU125               -0.00      0.00      0.00
  TU126               -0.00      0.00      0.00
  TU127               -0.00      0.00      0.00
  TU128                0.00      0.00      0.00
  TU129                0.00      0.00      0.00
  TU13                 0.00      0.00      0.00
  TU130               -0.00      0.00      0.00
  TU131               -0.00      0.00      0.00
  TU132                0.00      0.00      0.00
  TU133               -0.00      0.00      0.00
  TU134               -0.00      0.00      0.00
  TU135               53.00      0.12      0.04
  TU136               53.00      0.12      0.04
  TU137               53.00      0.07      0.01
  TU138               53.00      0.07      0.01
  TU139               53.00      0.05      0.01
  TU14               114.00      0.25      0.15
  TU140               53.00      0.05      0.01
  TU141                0.00      0.00      0.00
  TU142                0.00      0.00      0.00
  TU143               -0.00      0.00      0.00
  TU144               -0.00      0.00      0.00
  TU145               -0.00      0.00      0.00
  TU146               -0.00      0.00      0.00
  TU147               -0.00      0.00      0.00
  TU148                0.00      0.00      0.00
  TU149               -0.00      0.00      0.00
  TU15                -0.00      0.00      0.00
  TU150               -0.00      0.00      0.00
  TU151               -0.00      0.00      0.00
  TU152               -0.00      0.00      0.00
  TU15301            117.00      0.17      0.05
  TU15302            117.00      0.17      0.05
  TU1074               0.00      0.00      0.00
  TU154              117.00      0.11      0.02
  TU155               -0.00      0.00      0.00
  TU156              117.00      0.11      0.02
  TU157              117.00      0.11      0.02
  TU158                0.00      0.00      0.00
  TU159              117.00      0.11      0.02
  TU16              1182.00      0.21      0.02
  TU160               67.00      1.19      8.57
  TU161              184.00      0.18      0.05
  TU162              497.00      0.36      0.14
  TU163              453.00      0.33      0.12
  TU164              497.00      0.36      0.14
  TU166               -0.00      0.00      0.00
  TU167               -0.00      0.00      0.00
  TU168                0.00      0.00      0.00
  TU169                0.00      0.00      0.00
  TU17                -0.00      0.00      0.00
  TU170                0.00      0.00      0.00
  TU171              453.00      0.33      0.12
  TU17201             -0.00      0.00      0.00
  TU17202              0.00      0.00      0.00
  TU1011A             -0.00      0.00      0.00
  TU173               -0.00      0.00      0.00
  TU174               -0.00      0.00      0.00
  TU175               -0.00      0.00      0.00
  TU176              371.00      0.36      0.17
  TU177              453.00      0.45      0.25
  TU178              271.00      0.27      0.10
  TU179              157.00      0.45      0.48
  TU18                 0.00      0.00      0.00
  TU180              157.00      0.45      0.48
  TU181                0.00      0.00      0.00
  TU182              157.00      0.72      1.51
  TU183                0.00      0.00      0.00
  TU184                0.00      0.00      0.00
  TU185               64.00      0.14      0.05
  TU186               53.00      0.14      0.06
  TU187               53.00      0.12      0.04
  TU188              225.00      0.16      0.03
  TU189              225.00      0.16      0.03
  TU19                 0.00      0.00      0.00
  TU190               -0.00      0.00      0.00
  TU191               -0.00      0.00      0.00
  TU192                0.00      0.00      0.00
  TU193                0.00      0.00      0.00
  TU194               -0.00      0.00      0.00
  TU195                0.00      0.00      0.00
  TU196                0.00      0.00      0.00
  TU197               -0.00      0.00      0.00
  TU198                0.00      0.00      0.00
  TU199                0.00      0.00      0.00
  TU2                  0.00      0.00      0.00
  TU20                 0.00      0.00      0.00
  TU200               -0.00      0.00      0.00
  TU201                0.00      0.00      0.00
  TU203                0.00      0.00      0.00
  TU204              298.00      0.13      0.02
  TU205              298.00      0.13      0.02
  TU21                99.00      0.83      2.84
  TU22               225.00      0.12      0.02
  TU23               298.00      0.16      0.03
  TU24               298.00      0.16      0.03
  TU25               298.00      0.16      0.03
  TU26               161.00      0.16      0.04
  TU27               161.00      0.16      0.04
  TU28               161.00      0.16      0.04
  TU29               161.00      0.16      0.04
  TU3                  0.00      0.00      0.00
  TU30                 0.00      0.00      0.00
  TU31                -0.00      0.00      0.00
  TU32                 0.00      0.00      0.00
  TU33                 0.00      0.00      0.00
  TU34                64.00      0.29      0.30
  TU35                -0.00      0.00      0.00
  TU36                 0.00      0.00      0.00
  TU37                64.00      0.18      0.09
  TU38                64.00      0.18      0.09
  TU39                -0.00      0.00      0.00
  TU4                 -0.00      0.00      0.00
  TU40                 0.00      0.00      0.00
  TU41                64.00      0.14      0.05
  TU42                 0.00      0.00      0.00
  TU43                64.00      0.09      0.02
  TU44                64.00      0.09      0.02
  TU45                64.00      0.09      0.02
  TU46                64.00      0.09      0.02
  TU47                -0.00      0.00      0.00
  TU48                 0.00      0.00      0.00
  TU49                 0.00      0.00      0.00
  TU5                  0.00      0.00      0.00
  TU50                 0.00      0.00      0.00
  TU51                 0.00      0.00      0.00
  TU52                 0.00      0.00      0.00
  TU53                 0.00      0.00      0.00
  TU54                 0.00      0.00      0.00
  TU55                 0.00      0.00      0.00
  TU56                 0.00      0.00      0.00
  TU57                 0.00      0.00      0.00
  TU58                 0.00      0.00      0.00
  TU59                 0.00      0.00      0.00
  TU6                 64.00      0.09      0.02
  TU60                -0.00      0.00      0.00
  TU61                 0.00      0.00      0.00
  TU62                99.00      0.53      0.94
  TU63                62.00      1.28     10.64
  TU64               161.00      0.86      2.26
  TU65                 0.00      0.00      0.00
  TU66               161.00      0.53      0.72
  TU67               161.00      0.46      0.50
  TU68               161.00      0.46      0.50
  TU69               161.00      0.23      0.09
  TU7                  0.00      0.00      0.00
  TU70               161.00      0.23      0.09
  TU71               161.00      0.23      0.09
  TU72                 0.00      0.00      0.00
  TU73                 0.00      0.00      0.00
  TU74                 0.00      0.00      0.00
  TU75                 0.00      0.00      0.00
  TU76                 0.00      0.00      0.00
  TU77                 0.00      0.00      0.00
  TU78                 0.00      0.00      0.00
  TU79                 0.00      0.00      0.00
  TU8                 60.00      0.65      2.09
  TU80                 0.00      0.00      0.00
  TU81                 0.00      0.00      0.00
  TU82                 0.00      0.00      0.00
  TU83                 0.00      0.00      0.00
  TU84                 0.00      0.00      0.00
  TU85                 0.00      0.00      0.00
  TU86                 0.00      0.00      0.00
  TU87                 0.00      0.00      0.00
  TU88                 0.00      0.00      0.00
  TU89                 0.00      0.00      0.00
  TU9                 54.00      0.91      5.05
  TU90                 0.00      0.00      0.00
  TU91                -0.00      0.00      0.00
  TU92               150.00      0.69      1.39
  TU93               150.00      0.43      0.44
  TU94                 0.00      0.00      0.00
  TU95               150.00      0.43      0.44
  TU96                 0.00      0.00      0.00
  TU97                 0.00      0.00      0.00
  TU98                 0.00      0.00      0.00
  TU99               150.00      0.33      0.24
  TU4000               0.00      0.00      0.00
   
  Analysis ended Fri Dec  1 10:11:47 2023
