  Page 1                                    Fri Dec  1 10:11:07 2023

  ******************************************************************
  *                           E P A N E T                          *
  *                   Hydraulic and Water Quality                  *
  *                   Analysis for Pipe Networks                   *
  *                         Version 2.2                            *
  ******************************************************************
  
  Analysis begun Fri Dec  1 10:11:07 2023

   
  Node Results:
  ----------------------------------------------
                     Demand      Head  Pressure
  Node                 m3/h         m         m
  ----------------------------------------------
  3661                 0.00    428.67     50.53
  482                  0.00    427.50     81.50
  661                  0.00    427.91     97.91
  6610                 0.00    426.63      1.51
  6611                 0.00    426.61     91.61
  6612                 0.00    427.23     64.86
  6613                 0.00    424.75     69.75
  6615                 0.00    428.54     89.54
  6616                 0.00    428.35     67.35
  6617                 0.00    425.43     82.43
  6618                 0.00    428.33     80.33
  662                  0.00    428.31    100.31
  6620                 0.00    428.35    120.35
  6621                 0.00    428.35    100.35
  6622                 0.00    428.35     91.35
  6623                 0.00    428.35     77.35
  6624                 0.00    428.35     76.35
  6625                 0.00    428.35    116.35
  6626                 0.00    428.35    107.35
  6627                 0.00    426.77    105.77
  6628                 0.00    426.79     87.79
  6629                 0.00    427.46     87.46
  663                  0.00    427.99     86.99
  6630                 0.00    427.46      2.34
  6632                 0.00    428.13     88.13
  6633                 0.00    428.67     66.03
  6634                 0.00    428.71     57.71
  6635                 0.00    428.53     76.53
  6636                 0.00    428.53     72.53
  6637                 0.00    428.42     61.42
  6639                 0.00    426.98     66.98
  664                  0.00    427.82     79.82
  6640                 0.00    426.83     66.83
  6641                 0.00    427.09     68.41
  6642                 0.00    427.09     71.09
  6643                 0.00    427.43     75.43
  6644                 0.00    427.56     75.56
  6645                 0.00    427.62     77.62
  6646                 0.00    427.30     80.28
  6648                 0.00    427.30     81.29
  6649                 0.00    427.71     88.71
  665                  0.00    427.71     82.71
  666                  0.00    427.85     87.85
  6665                 0.00    428.39     63.25
  6666                 0.00    428.39     60.73
  667                  0.00    427.54     75.54
  668                  0.00    427.91     97.91
  669                  0.00    427.32     82.32
  1                   77.00    428.48     98.48
  10                   0.00    427.43     75.43
  100                  0.00    427.09     72.09
  100B                72.00    426.46     68.46
  101                158.00    424.05     71.05
  103                  0.00    424.66     85.66
  104                148.00    424.51     85.51
  105                  0.00    424.75     69.75
  106                 53.00    424.67     69.67
  107                  0.00    428.54     89.54
  108                  0.00    428.54     92.98
  109                  0.00    428.54     91.54
  11B                  0.00    427.64     84.64
  110                  0.00    428.26     82.26
  111                  0.00    427.97     89.99
  112                  0.00    428.12     86.12
  113                  0.00    427.56    104.56
  114                  0.00    426.55     78.55
  115                 50.00    425.85     79.85
  116                  0.00    426.21     81.21
  117                 82.00    425.32     82.32
  118                 68.00    424.59     85.59
  119                  0.00    424.59    101.78
  12                   0.00    427.27     96.93
  121                 64.00    426.93     76.93
  122                 62.00    422.84     75.84
  123                  0.00    425.74     79.74
  125                  0.00    426.88     75.88
  126                  0.00    426.45     78.45
  127                140.00    424.76     81.43
  128                  0.00    428.34     66.34
  129                  0.00    428.15     72.15
  130                  0.00    428.01     86.93
  130B                 0.00    428.09     75.09
  132                 58.00    426.19     93.19
  134                  0.00    426.77    105.77
  135                 55.00    424.73    108.73
  137                 59.00    420.77    111.77
  139                 58.00    427.57     67.57
  14                 103.00    426.63     88.63
  140                  0.00    427.75     76.75
  141                  0.00    427.74     75.74
  142                  0.00    427.57     66.57
  143                  0.00    426.19     85.22
  144                  0.00    428.26     69.26
  146                  0.00    428.35     82.35
  147                  0.00    428.35    107.35
  148                  0.00    428.35     95.35
  149                  0.00    428.35    115.14
  15                   0.00    426.61     91.61
  150                  0.00    428.35    120.28
  151                  0.00    428.35    123.11
  152                  0.00    428.35    118.33
  153                  0.00    428.35    118.35
  154                  0.00    428.35    103.35
  157                  0.00    428.35    125.35
  158A                 0.00    428.35    107.35
  158B                 0.00    428.35    107.35
  16B                  0.00    426.79     92.79
  160                 71.00    428.42     61.42
  162                  0.00    428.40     60.40
  163                 84.00    428.12     54.12
  164                  0.00    428.39     68.73
  165                  0.00    428.39     67.09
  166                  0.00    428.39     67.38
  167                  0.00    428.39     57.75
  169                  0.00    428.39     61.89
  17A                  0.00    426.48     91.48
  170                  0.00    428.48     69.48
  17B                178.00    426.35     91.35
  171                  0.00    428.53     76.53
  172                  0.00    428.53     88.53
  18B                  0.00    426.35    101.35
  19                   0.00    428.67     70.67
  2                    0.00    428.34    102.34
  20                  86.00    428.67     64.67
  2002                 0.00    427.32     77.32
  2003                 0.00    427.32     77.32
  21                  64.00    428.64     65.91
  22                   0.00    428.64     67.04
  222                  0.00    428.57     78.57
  24                   0.00    428.54     84.54
  25                   0.00    428.48     83.48
  26                   0.00    428.33     80.33
  27                   0.00    428.42     78.42
  28                  56.00    428.40     80.40
  29                   0.00    428.35     72.35
  3                    0.00    428.17     87.82
  30                   0.00    428.35     67.35
  3002                 0.00    428.67     42.67
  3004                 0.00    428.67     42.67
  3005                 0.00    428.67     42.67
  3008                 0.00    428.67     43.67
  3012                 0.00    428.67     57.94
  3013                 0.00    428.67     63.74
  3016                 0.00    428.70     63.70
  3017               147.00    428.79     46.79
  3018                71.00    428.33     51.33
  3019                 0.00    428.67     59.28
  3020                 0.00    428.67     60.56
  3024                 0.00    428.67     63.73
  31                   0.00    428.35     70.56
  3152                 0.00    428.67     62.47
  32                   0.00    428.35     70.35
  34                   0.00    428.35     77.33
  35                   0.00    428.35     91.35
  36                   0.00    428.35    100.35
  39                   0.00    428.35    115.35
  41                   0.00    428.35    121.35
  46                 125.00    428.58     52.58
  47                   0.00    428.39     70.21
  48                   0.00    427.11     83.11
  49                  76.00    424.15     72.15
  5                    0.00    428.08     81.08
  52                  87.00    424.11     73.11
  53                  89.00    427.40     71.40
  54                   0.00    428.60     83.60
  55                   0.00    428.36     98.36
  56                   0.00    428.31     94.31
  58                   0.00    427.80     94.80
  59                  88.00    426.61     97.61
  6                    0.00    427.56     75.56
  60                   0.00    428.17     83.17
  61                   0.00    428.17     89.17
  62                   0.00    427.26     73.26
  64                   0.00    428.23     97.23
  65                   0.00    428.13     88.13
  66                   0.00    428.12     89.12
  67                   0.00    427.96     95.96
  68                   0.00    427.46     88.46
  69                  58.00    426.70     75.70
  7                    0.00    427.90     74.90
  70                 153.00    426.79     86.79
  71                  86.00    425.67     88.67
  72                  83.00    427.26     71.26
  73                 177.00    427.40     72.40
  77                 129.00    423.14     67.14
  78                   0.00    427.26     87.12
  79                   0.00    427.90     74.90
  8                    0.00    427.62     77.62
  80                   0.00    427.80     78.80
  81                  68.00    425.64     66.64
  82                   0.00    427.30     69.30
  85                   0.00    426.79     87.79
  86                   0.00    426.79     89.79
  87                   0.00    427.28     67.28
  88                   0.00    427.23     74.23
  89                 106.00    427.12     60.12
  90                   0.00    427.09     71.09
  91                   0.00    426.98     54.98
  92                   0.00    426.63     66.63
  91B                 90.00    426.53     66.53
  94                   0.00    427.71     88.71
  95                   0.00    427.71     84.71
  97                   0.00    427.71     96.71
  99                  61.00    426.58     76.58
  74                  74.00    425.34     66.63
  1074                 0.00    427.39     69.39
  11A                  0.00    427.71     84.71
  1011                 0.00    427.71     84.71
  0                -3614.00    429.00      0.00  Reservoir
   
   
  Link Results:
  ----------------------------------------------
                       Flow  Velocity  Headloss
  Link                 m3/h       m/s    /1000m
  ----------------------------------------------
  TU1                 -0.00      0.00      0.00
  TU10                 0.00      0.00      0.00
  TU100              297.00      0.66      0.83
  TU101              297.00      0.42      0.28
  TU102                0.00      0.00      0.00
  TU103              297.00      0.42      0.28
  TU104              297.00      0.42      0.28
  TU105             1500.00      0.65      0.31
  TU106             1500.00      0.65      0.31
  TU107                0.00      0.00      0.00
  TU108             1500.00      0.65      0.31
  TU109             1797.00      0.78      0.44
  TU11               211.00      0.97      2.58
  TU110             1797.00      0.78      0.44
  TU111               88.00      1.16      6.77
  TU112               88.00      0.64      1.63
  TU113               88.00      0.47      0.76
  TU114               88.00      0.47      0.76
  TU115             1962.00      0.69      0.31
  TU116             1962.00      0.69      0.31
  TU117               89.00      0.96      4.28
  TU118                0.00      0.00      0.00
  TU119             1962.00      0.69      0.31
  TU12               148.00      1.69     12.46
  TU120             2051.00      0.73      0.34
  TU121                0.00      0.00      0.00
  TU122                0.00      0.00      0.00
  TU123               -0.00      0.00      0.00
  TU124               87.00      0.99      4.71
  TU125              163.00      1.19      5.02
  TU126              163.00      0.75      1.61
  TU127              163.00      0.75      1.61
  TU128                0.00      0.00      0.00
  TU129                0.00      0.00      0.00
  TU13               148.00      1.08      4.21
  TU130               -0.00      0.00      0.00
  TU131               -0.00      0.00      0.00
  TU132                0.00      0.00      0.00
  TU133               -0.00      0.00      0.00
  TU134               90.00      0.97      4.37
  TU135               84.00      0.19      0.08
  TU136              155.00      0.34      0.25
  TU137              318.00      0.45      0.32
  TU138              318.00      0.45      0.32
  TU139              318.00      0.31      0.13
  TU14               462.00      1.02      1.86
  TU140              514.00      0.50      0.32
  TU141                0.00      0.00      0.00
  TU142              212.00      0.57      0.73
  TU143               -0.00      0.00      0.00
  TU144               72.00      0.78      2.91
  TU145               90.00      0.62      1.49
  TU146              162.00      0.71      1.41
  TU147              162.00      0.44      0.45
  TU148               -0.00      0.00      0.00
  TU149               -0.00      0.00      0.00
  TU15                -0.00      0.00      0.00
  TU150               -0.00      0.00      0.00
  TU151              162.00      0.23      0.09
  TU152               61.00      0.70      2.47
  TU15301            403.00      0.57      0.49
  TU15302            329.00      0.47      0.34
  TU1074              74.00      0.97      4.94
  TU154              580.00      0.57      0.39
  TU155                0.00      0.00      0.00
  TU156              580.00      0.57      0.39
  TU157              792.00      0.78      0.70
  TU158                0.00      0.00      0.00
  TU159              792.00      0.78      0.70
  TU16              3614.00      0.65      0.19
  TU160                0.00      0.00      0.00
  TU161              792.00      0.78      0.70
  TU162              708.00      0.51      0.27
  TU163              708.00      0.51      0.27
  TU164              708.00      0.51      0.27
  TU166               68.00      1.40     12.60
  TU167               -0.00      0.00      0.00
  TU168                0.00      0.00      0.00
  TU169               68.00      0.57      1.44
  TU17                -0.00      0.00      0.00
  TU170               68.00      0.31      0.33
  TU171              640.00      0.46      0.22
  TU17201              0.00      0.00      0.00
  TU17202              0.00      0.00      0.00
  TU1011A             -0.00      0.00      0.00
  TU173               -0.00      0.00      0.00
  TU174               -0.00      0.00      0.00
  TU175               -0.00      0.00      0.00
  TU176              640.00      0.63      0.47
  TU177              640.00      0.63      0.47
  TU178              640.00      0.63      0.47
  TU179              178.00      0.51      0.60
  TU18                 0.00      0.00      0.00
  TU180              178.00      0.51      0.60
  TU181                0.00      0.00      0.00
  TU182              178.00      0.81      1.89
  TU183                0.00      0.00      0.00
  TU184                0.00      0.00      0.00
  TU185              466.00      1.03      1.89
  TU186               -0.00      0.00      0.00
  TU187               84.00      0.19      0.08
  TU188              752.00      0.54      0.30
  TU189              752.00      0.54      0.30
  TU19                 0.00      0.00      0.00
  TU190               -0.00      0.00      0.00
  TU191                0.00      0.00      0.00
  TU192                0.00      0.00      0.00
  TU193                0.00      0.00      0.00
  TU194               -0.00      0.00      0.00
  TU195                0.00      0.00      0.00
  TU196                0.00      0.00      0.00
  TU197               -0.00      0.00      0.00
  TU198                0.00      0.00      0.00
  TU199                0.00      0.00      0.00
  TU2                  0.00      0.00      0.00
  TU20                 0.00      0.00      0.00
  TU200               -0.00      0.00      0.00
  TU201                0.00      0.00      0.00
  TU203               71.00      1.19      8.32
  TU204              902.00      0.39      0.12
  TU205              902.00      0.39      0.12
  TU21                -0.00      0.00      0.00
  TU22               752.00      0.42      0.16
  TU23               752.00      0.42      0.16
  TU24               752.00      0.42      0.16
  TU25               816.00      0.45      0.18
  TU26               230.00      0.23      0.07
  TU27               230.00      0.23      0.07
  TU28               230.00      0.23      0.07
  TU29               286.00      0.28      0.11
  TU3                  0.00      0.00      0.00
  TU30                 0.00      0.00      0.00
  TU31                68.00      0.78      3.01
  TU32                82.00      0.94      4.23
  TU33               150.00      0.69      1.39
  TU34               200.00      0.92      2.34
  TU35                62.00      1.10      7.44
  TU36                62.00      0.71      2.54
  TU37               262.00      0.74      1.21
  TU38               262.00      0.74      1.21
  TU39               140.00      1.60     11.25
  TU4                329.00      0.47      0.34
  TU40               140.00      1.02      3.80
  TU41               402.00      0.89      1.44
  TU42                84.00      0.58      1.32
  TU43               466.00      0.66      0.64
  TU44               466.00      0.66      0.64
  TU45               466.00      0.66      0.64
  TU46               466.00      0.66      0.64
  TU47                -0.00      0.00      0.00
  TU48                 0.00      0.00      0.00
  TU49                 0.00      0.00      0.00
  TU5                329.00      0.47      0.34
  TU50                 0.00      0.00      0.00
  TU51                 0.00      0.00      0.00
  TU52                 0.00      0.00      0.00
  TU53                 0.00      0.00      0.00
  TU54                 0.00      0.00      0.00
  TU55                 0.00      0.00      0.00
  TU56                 0.00      0.00      0.00
  TU57                 0.00      0.00      0.00
  TU58                 0.00      0.00      0.00
  TU59                 0.00      0.00      0.00
  TU6                466.00      0.66      0.64
  TU60                -0.00      0.00      0.00
  TU61                 0.00      0.00      0.00
  TU62                -0.00      0.00      0.00
  TU63                 0.00      0.00      0.00
  TU64                 0.00      0.00      0.00
  TU65                 0.00      0.00      0.00
  TU66                 0.00      0.00      0.00
  TU67                 0.00      0.00      0.00
  TU68                 0.00      0.00      0.00
  TU69                 0.00      0.00      0.00
  TU7                129.00      2.17     24.94
  TU70                 0.00      0.00      0.00
  TU71                 0.00      0.00      0.00
  TU72               230.00      0.51      0.52
  TU73               230.00      0.51      0.52
  TU74               230.00      0.51      0.52
  TU75               230.00      0.51      0.52
  TU76               230.00      0.51      0.52
  TU77               230.00      0.51      0.52
  TU78                59.00      1.22      9.72
  TU79               114.00      1.50     10.88
  TU8                158.00      1.71     12.26
  TU80                 0.00      0.00      0.00
  TU81               114.00      0.96      3.68
  TU82                 0.00      0.00      0.00
  TU83                58.00      0.76      3.17
  TU84                 0.00      0.00      0.00
  TU85                58.00      0.42      0.77
  TU86                58.00      0.27      0.25
  TU87                58.00      0.31      0.36
  TU88               116.00      0.26      0.15
  TU89                 0.00      0.00      0.00
  TU9                 53.00      0.89      4.88
  TU90                 0.00      0.00      0.00
  TU91                -0.00      0.00      0.00
  TU92               153.00      0.70      1.44
  TU93               153.00      0.43      0.45
  TU94                86.00      0.98      4.61
  TU95               239.00      0.68      1.02
  TU96                 0.00      0.00      0.00
  TU97                58.00      1.03      6.59
  TU98                58.00      0.66      2.25
  TU99               297.00      0.66      0.83
  TU4000               0.00      0.00      0.00
   
  Analysis ended Fri Dec  1 10:11:07 2023
