  Page 1                                    Fri Dec  1 09:56:02 2023

  ******************************************************************
  *                           E P A N E T                          *
  *                   Hydraulic and Water Quality                  *
  *                   Analysis for Pipe Networks                   *
  *                         Version 2.2                            *
  ******************************************************************
  
  Analysis begun Fri Dec  1 09:56:02 2023

   
  Node Results:
  ----------------------------------------------
                     Demand      Head  Pressure
  Node                 m3/h         m         m
  ----------------------------------------------
  3661                 0.00    428.70     50.56
  482                  0.00    428.74     82.74
  661                  0.00    426.35     96.35
  6610                 0.00    426.79      1.67
  6611                 0.00    428.51     93.51
  6612                 0.00    428.46     66.09
  6613                 0.00    427.84     72.84
  6615                 0.00    428.48     89.48
  6616                 0.00    427.64     66.64
  6617                 0.00    427.46     84.46
  6618                 0.00    428.27     80.27
  662                  0.00    428.74    100.74
  6620                 0.00    427.52    119.52
  6621                 0.00    427.52     99.52
  6622                 0.00    427.52     90.52
  6623                 0.00    427.52     76.52
  6624                 0.00    427.53     75.53
  6625                 0.00    426.76    114.76
  6626                 0.00    427.19    106.19
  6627                 0.00    423.89    102.89
  6628                 0.00    428.54     89.54
  6629                 0.00    428.54     88.54
  663                  0.00    428.67     87.67
  6630                 0.00    428.54      3.42
  6632                 0.00    428.57     88.57
  6633                 0.00    428.85     66.21
  6634                 0.00    428.86     57.86
  6635                 0.00    428.80     76.80
  6636                 0.00    428.80     72.80
  6637                 0.00    428.74     61.74
  6639                 0.00    428.02     68.02
  664                  0.00    428.62     80.62
  6640                 0.00    427.65     67.65
  6641                 0.00    428.31     69.63
  6642                 0.00    428.31     72.31
  6643                 0.00    428.58     76.58
  6644                 0.00    428.61     76.61
  6645                 0.00    428.62     78.62
  6646                 0.00    428.59     81.57
  6648                 0.00    428.59     82.58
  6649                 0.00    428.51     89.51
  665                  0.00    428.60     83.60
  666                  0.00    428.54     88.54
  6665                 0.00    427.76     62.62
  6666                 0.00    428.59     60.93
  667                  0.00    428.61     76.61
  668                  0.00    426.35     96.35
  669                  0.00    428.54     83.54
  1                   70.00    428.79     98.79
  10                   0.00    428.58     76.58
  100                  0.00    428.31     73.31
  100B                73.00    427.26     69.26
  101                  0.00    427.84     74.84
  103                  0.00    428.48     89.48
  104                  0.00    428.48     89.48
  105                116.00    427.80     72.80
  106                  0.00    427.84     72.84
  107                  0.00    428.48     89.48
  108                  0.00    428.48     92.92
  109                  0.00    428.48     91.48
  11B                  0.00    428.60     85.60
  110                  0.00    428.26     82.26
  111                  0.00    428.21     90.23
  112                  0.00    428.23     86.23
  113                  0.00    428.14    105.14
  114                  0.00    427.95     79.95
  115                  0.00    427.73     81.73
  116                  0.00    427.87     82.87
  117                  0.00    427.46     84.46
  118                 76.00    425.17     86.17
  119                 42.00    422.15     99.34
  12                   0.00    428.56     98.22
  121                  0.00    428.04     78.04
  122                  0.00    427.87     80.87
  123                  0.00    427.87     81.87
  125                  0.00    428.03     77.03
  126                 54.00    427.95     79.95
  127                  0.00    427.95     84.62
  128                 65.00    427.59     65.59
  129                  0.00    426.86     70.86
  130                161.00    426.45     85.37
  130B                55.00    426.67     73.67
  132                 59.00    424.58     91.58
  134                 61.00    423.59    102.59
  135                 54.00    421.92    105.92
  137                 58.00    418.07    109.07
  139                  0.00    426.35     66.35
  14                  67.00    428.48     90.48
  140                  0.00    426.35     75.35
  141                  0.00    426.35     74.35
  142                  0.00    426.35     65.35
  143                  0.00    424.58     83.61
  144                 85.00    427.21     68.21
  146                  0.00    427.36     81.36
  147                  0.00    427.19    106.19
  148                  0.00    427.34     94.34
  149                  0.00    426.76    113.55
  15                   0.00    428.51     93.51
  150                 83.00    426.25    118.18
  151                  0.00    425.99    120.75
  152                 70.00    424.00    113.98
  153                  0.00    424.67    114.67
  154                  0.00    427.52    102.52
  157                  0.00    427.52    124.52
  158A                 0.00    427.52    106.52
  158B                 0.00    427.52    106.52
  16B                  0.00    428.51     94.51
  160                 52.00    428.72     61.72
  162                  0.00    428.65     60.65
  163                  0.00    428.59     54.59
  164                  0.00    428.42     68.76
  165                  0.00    428.02     66.72
  166                  0.00    428.02     67.01
  167                137.00    427.45     56.81
  169                 57.00    428.24     61.74
  17A                  0.00    428.51     93.51
  170                  0.00    428.77     69.77
  17B                  0.00    428.51     93.51
  171                  0.00    428.80     76.80
  172                  0.00    428.80     88.80
  18B                  0.00    428.51    103.51
  19                   0.00    428.85     70.85
  2                    0.00    428.75    102.75
  20                   0.00    428.70     64.70
  2002                 0.00    428.54     78.54
  2003                 0.00    428.54     78.54
  21                  62.00    428.65     65.92
  22                   0.00    428.65     67.05
  222                  0.00    428.54     78.54
  24                   0.00    428.48     84.48
  25                   0.00    428.38     83.38
  26                   0.00    428.27     80.27
  27                   0.00    428.28     78.28
  28                   0.00    428.13     80.13
  29                   0.00    427.71     71.71
  3                    0.00    428.71     88.36
  30                   0.00    427.66     66.66
  3002                 0.00    428.70     42.70
  3004                 0.00    428.70     42.70
  3005                 0.00    428.70     42.70
  3008                 0.00    428.70     43.70
  3012                 0.00    428.70     57.97
  3013                 0.00    428.70     63.77
  3016               132.00    428.74     63.74
  3017                 0.00    428.89     46.89
  3018                 0.00    428.83     51.83
  3019                 0.00    428.70     59.31
  3020                 0.00    428.70     60.59
  3024                 0.00    428.70     63.76
  31                   0.00    427.57     69.78
  3152                 0.00    428.70     62.50
  32                   0.00    427.60     69.60
  34                  72.00    427.34     76.32
  35                   0.00    427.52     90.52
  36                   0.00    427.52     99.52
  39                   0.00    427.52    114.52
  41                   0.00    427.52    120.52
  46                   0.00    428.83     52.83
  47                   0.00    428.33     70.15
  48                   0.00    428.74     84.74
  49                   0.00    428.74     76.74
  5                    0.00    428.69     81.69
  52                   0.00    428.74     77.74
  53                   0.00    428.86     72.86
  54                   0.00    428.83     83.83
  55                   0.00    428.58     98.58
  56                   0.00    428.48     94.48
  58                 119.00    427.60     94.60
  59                   0.00    427.60     98.60
  6                    0.00    428.61     76.61
  60                   0.00    428.71     83.71
  61                   0.00    428.71     89.71
  62                   0.00    428.61     74.61
  64                   0.00    428.66     97.66
  65                  91.00    428.16     88.16
  66                  84.00    428.56     89.56
  67                 114.00    428.54     96.54
  68                   0.00    428.54     89.54
  69                   0.00    428.54     77.54
  7                    0.00    428.65     75.65
  70                   0.00    428.54     88.54
  71                   0.00    428.54     91.54
  72                   0.00    428.61     72.61
  73                   0.00    428.57     73.57
  77                   0.00    428.61     72.61
  78                   0.00    428.61     88.47
  79                   0.00    428.65     75.65
  8                    0.00    428.62     78.62
  80                  96.00    428.59     79.59
  81                   0.00    428.59     69.59
  82                   0.00    428.59     70.59
  85                   0.00    428.54     89.54
  86                   0.00    428.54     91.54
  87                   0.00    428.49     68.49
  88                   0.00    428.46     75.46
  89                   0.00    428.38     61.38
  90                   0.00    428.31     72.31
  91                   0.00    428.02     56.02
  92                   0.00    426.79     66.79
  91B                198.00    426.38     66.38
  94                   0.00    428.51     89.51
  95                   0.00    428.30     85.30
  97                   0.00    428.15     97.15
  99                   0.00    428.38     78.38
  74                   0.00    428.57     69.86
  1074                 0.00    428.57     70.57
  11A                 72.00    428.09     85.09
  1011                 0.00    428.15     85.15
  0                -2535.00    429.00      0.00  Reservoir
   
   
  Link Results:
  ----------------------------------------------
                       Flow  Velocity  Headloss
  Link                 m3/h       m/s    /1000m
  ----------------------------------------------
  TU1                 -0.00      0.00      0.00
  TU10               116.00      1.25      6.95
  TU100              114.00      0.25      0.15
  TU101              198.00      0.28      0.14
  TU102               91.00      1.62     15.02
  TU103              289.00      0.41      0.27
  TU104              289.00      0.41      0.27
  TU105              622.00      0.27      0.06
  TU106              622.00      0.27      0.06
  TU107                0.00      0.00      0.00
  TU108              622.00      0.27      0.06
  TU109              911.00      0.40      0.13
  TU11               116.00      0.53      0.87
  TU110              911.00      0.40      0.13
  TU111                0.00      0.00      0.00
  TU112              119.00      0.87      2.82
  TU113              119.00      0.63      1.31
  TU114              119.00      0.63      1.31
  TU115             1100.00      0.39      0.11
  TU116             1100.00      0.39      0.11
  TU117               -0.00      0.00      0.00
  TU118                0.00      0.00      0.00
  TU119             1100.00      0.39      0.11
  TU12                 0.00      0.00      0.00
  TU120             1100.00      0.39      0.11
  TU121                0.00      0.00      0.00
  TU122                0.00      0.00      0.00
  TU123                0.00      0.00      0.00
  TU124                0.00      0.00      0.00
  TU125               -0.00      0.00      0.00
  TU126               -0.00      0.00      0.00
  TU127               -0.00      0.00      0.00
  TU128              137.00      0.60      1.04
  TU129              137.00      0.60      1.04
  TU13                 0.00      0.00      0.00
  TU130              137.00      0.60      1.04
  TU131              137.00      0.60      1.04
  TU132               57.00      0.25      0.21
  TU133              194.00      0.84      1.96
  TU134              198.00      2.14     18.61
  TU135              194.00      0.43      0.38
  TU136              246.00      0.54      0.59
  TU137              246.00      0.35      0.20
  TU138              246.00      0.35      0.20
  TU139              246.00      0.24      0.08
  TU14               183.00      0.40      0.34
  TU140              246.00      0.24      0.08
  TU141                0.00      0.00      0.00
  TU142                0.00      0.00      0.00
  TU143               -0.00      0.00      0.00
  TU144               73.00      0.79      2.99
  TU145              198.00      1.37      6.29
  TU146              271.00      1.18      3.62
  TU147              271.00      0.73      1.13
  TU148                0.00      0.00      0.00
  TU149               -0.00      0.00      0.00
  TU15                -0.00      0.00      0.00
  TU150               -0.00      0.00      0.00
  TU151              271.00      0.38      0.24
  TU152               -0.00      0.00      0.00
  TU15301            271.00      0.38      0.24
  TU15302            271.00      0.38      0.24
  TU1074               0.00      0.00      0.00
  TU154              271.00      0.27      0.10
  TU155                0.00      0.00      0.00
  TU156              271.00      0.27      0.10
  TU157              271.00      0.27      0.10
  TU158                0.00      0.00      0.00
  TU159              271.00      0.27      0.10
  TU16              2535.00      0.46      0.10
  TU160                0.00      0.00      0.00
  TU161              271.00      0.27      0.10
  TU162              351.00      0.25      0.08
  TU163              351.00      0.25      0.08
  TU164              351.00      0.25      0.07
  TU166               -0.00      0.00      0.00
  TU167               -0.00      0.00      0.00
  TU168                0.00      0.00      0.00
  TU169                0.00      0.00      0.00
  TU17                -0.00      0.00      0.00
  TU170               96.00      0.44      0.62
  TU171              255.00      0.18      0.04
  TU17201             72.00      0.95      4.69
  TU17202              0.00      0.00      0.00
  TU1011A             72.00      0.95      4.70
  TU173               72.00      0.53      1.13
  TU174               -0.00      0.00      0.00
  TU175               72.00      0.33      0.37
  TU176              183.00      0.18      0.05
  TU177              183.00      0.18      0.05
  TU178              183.00      0.18      0.05
  TU179                0.00      0.00      0.00
  TU18                 0.00      0.00      0.00
  TU180                0.00      0.00      0.00
  TU181                0.00      0.00      0.00
  TU182                0.00      0.00      0.00
  TU183                0.00      0.00      0.00
  TU184                0.00      0.00      0.00
  TU185              172.00      0.38      0.31
  TU186              194.00      0.52      0.62
  TU187              194.00      0.43      0.38
  TU188              995.00      0.72      0.50
  TU189              995.00      0.72      0.50
  TU19                 0.00      0.00      0.00
  TU190               70.00      0.92      4.46
  TU191                0.00      0.00      0.00
  TU192                0.00      0.00      0.00
  TU193                0.00      0.00      0.00
  TU194               -0.00      0.00      0.00
  TU195                0.00      0.00      0.00
  TU196                0.00      0.00      0.00
  TU197               -0.00      0.00      0.00
  TU198                0.00      0.00      0.00
  TU199                0.00      0.00      0.00
  TU2                  0.00      0.00      0.00
  TU20                 0.00      0.00      0.00
  TU200               -0.00      0.00      0.00
  TU201                0.00      0.00      0.00
  TU203                0.00      0.00      0.00
  TU204             1057.00      0.46      0.17
  TU205             1189.00      0.52      0.21
  TU21                70.00      0.59      1.52
  TU22               995.00      0.55      0.26
  TU23               995.00      0.55      0.26
  TU24               995.00      0.55      0.26
  TU25              1057.00      0.58      0.29
  TU26               823.00      0.81      0.75
  TU27               823.00      0.81      0.75
  TU28               823.00      0.81      0.75
  TU29               823.00      0.81      0.75
  TU3                  0.00      0.00      0.00
  TU30                42.00      0.87      5.23
  TU31               118.00      1.35      8.22
  TU32                 0.00      0.00      0.00
  TU33               118.00      0.54      0.90
  TU34               118.00      0.54      0.90
  TU35                -0.00      0.00      0.00
  TU36                 0.00      0.00      0.00
  TU37               118.00      0.33      0.28
  TU38               118.00      0.33      0.28
  TU39                -0.00      0.00      0.00
  TU4                271.00      0.38      0.24
  TU40                54.00      0.39      0.68
  TU41               172.00      0.38      0.31
  TU42                 0.00      0.00      0.00
  TU43               172.00      0.24      0.10
  TU44               172.00      0.24      0.10
  TU45               172.00      0.24      0.10
  TU46               172.00      0.24      0.10
  TU47                -0.00      0.00      0.00
  TU48                 0.00      0.00      0.00
  TU49                 0.00      0.00      0.00
  TU5                271.00      0.38      0.24
  TU50                 0.00      0.00      0.00
  TU51                 0.00      0.00      0.00
  TU52                 0.00      0.00      0.00
  TU53                 0.00      0.00      0.00
  TU54                 0.00      0.00      0.00
  TU55                 0.00      0.00      0.00
  TU56                 0.00      0.00      0.00
  TU57                 0.00      0.00      0.00
  TU58                72.00      1.28      9.78
  TU59                72.00      0.20      0.12
  TU6                172.00      0.24      0.10
  TU60                70.00      1.44     13.28
  TU61                 0.00      0.00      0.00
  TU62               153.00      0.81      2.06
  TU63                 0.00      0.00      0.00
  TU64               153.00      0.81      2.06
  TU65                 0.00      0.00      0.00
  TU66               153.00      0.51      0.66
  TU67               153.00      0.43      0.45
  TU68               153.00      0.43      0.45
  TU69               225.00      0.32      0.17
  TU7                  0.00      0.00      0.00
  TU70               225.00      0.32      0.17
  TU71               225.00      0.32      0.17
  TU72               232.00      0.51      0.53
  TU73               393.00      0.87      1.38
  TU74               448.00      0.99      1.75
  TU75               448.00      0.99      1.75
  TU76               533.00      1.18      2.41
  TU77               598.00      1.32      2.98
  TU78                58.00      1.20      9.42
  TU79               112.00      1.47     10.53
  TU8                  0.00      0.00      0.00
  TU80                61.00      1.26     10.33
  TU81               173.00      1.46      7.90
  TU82                 0.00      0.00      0.00
  TU83                59.00      0.78      3.27
  TU84                 0.00      0.00      0.00
  TU85                 0.00      0.00      0.00
  TU86                 0.00      0.00      0.00
  TU87                 0.00      0.00      0.00
  TU88                59.00      0.13      0.04
  TU89                 0.00      0.00      0.00
  TU9                  0.00      0.00      0.00
  TU90                 0.00      0.00      0.00
  TU91                -0.00      0.00      0.00
  TU92                -0.00      0.00      0.00
  TU93                 0.00      0.00      0.00
  TU94                 0.00      0.00      0.00
  TU95                 0.00      0.00      0.00
  TU96                 0.00      0.00      0.00
  TU97                 0.00      0.00      0.00
  TU98                 0.00      0.00      0.00
  TU99                 0.00      0.00      0.00
  TU4000               0.00      0.00      0.00
   
  Analysis ended Fri Dec  1 09:56:02 2023
