  Page 1                                    Fri Dec  1 10:07:37 2023

  ******************************************************************
  *                           E P A N E T                          *
  *                   Hydraulic and Water Quality                  *
  *                   Analysis for Pipe Networks                   *
  *                         Version 2.2                            *
  ******************************************************************
  
  Analysis begun Fri Dec  1 10:07:37 2023

   
  Node Results:
  ----------------------------------------------
                     Demand      Head  Pressure
  Node                 m3/h         m         m
  ----------------------------------------------
  3661                 0.00    428.96     50.82
  482                  0.00    428.97     82.97
  661                  0.00    428.95     98.95
  6610                 0.00    427.42      2.30
  6611                 0.00    428.34     93.34
  6612                 0.00    428.05     65.68
  6613                 0.00    427.67     72.67
  6615                 0.00    428.96     89.96
  6616                 0.00    428.95     67.95
  6617                 0.00    428.34     85.34
  6618                 0.00    428.94     80.94
  662                  0.00    428.76    100.76
  6620                 0.00    428.95    120.95
  6621                 0.00    428.95    100.95
  6622                 0.00    428.95     91.95
  6623                 0.00    428.95     77.95
  6624                 0.00    428.95     76.95
  6625                 0.00    428.95    116.95
  6626                 0.00    428.95    107.95
  6627                 0.00    428.95    107.95
  6628                 0.00    428.67     89.67
  6629                 0.00    428.67     88.67
  663                  0.00    428.60     87.60
  6630                 0.00    428.71      3.59
  6632                 0.00    428.73     88.73
  6633                 0.00    428.92     66.28
  6634                 0.00    428.94     57.94
  6635                 0.00    428.97     76.97
  6636                 0.00    428.97     72.97
  6637                 0.00    428.97     61.97
  6639                 0.00    427.84     67.84
  664                  0.00    428.51     80.51
  6640                 0.00    427.75     67.75
  6641                 0.00    427.90     69.22
  6642                 0.00    427.79     71.79
  6643                 0.00    428.26     76.26
  6644                 0.00    428.35     76.35
  6645                 0.00    428.38     78.38
  6646                 0.00    427.49     80.47
  6648                 0.00    427.64     81.63
  6649                 0.00    428.40     89.40
  665                  0.00    428.47     83.47
  666                  0.00    428.71     88.71
  6665                 0.00    428.97     63.83
  6666                 0.00    428.97     61.31
  667                  0.00    428.34     76.34
  668                  0.00    428.95     98.95
  669                  0.00    428.67     83.67
  1                    0.00    428.84     98.84
  10                  73.00    427.80     75.80
  100                155.00    427.74     72.74
  100B                 0.00    427.75     69.75
  101                117.00    427.27     74.27
  103                  0.00    428.31     89.31
  104                  0.00    428.31     89.31
  105                  0.00    427.67     72.67
  106                  0.00    427.67     72.67
  107                  0.00    428.96     89.96
  108                  0.00    428.96     93.40
  109                  0.00    428.96     91.96
  11B                 96.00    428.45     85.45
  110                  0.00    428.93     82.93
  111                  0.00    428.90     90.92
  112                  0.00    428.91     86.91
  113                  0.00    428.85    105.85
  114                  0.00    428.66     80.66
  115                  0.00    428.48     82.48
  116                  0.00    428.55     83.55
  117                  0.00    428.34     85.34
  118                 81.00    427.19     88.19
  119                  0.00    427.19    104.38
  12                  49.00    428.39     98.05
  121                  0.00    428.77     78.77
  122                 62.00    425.18     78.18
  123                  0.00    428.07     82.07
  125                  0.00    428.77     77.77
  126                  0.00    428.77     80.77
  127                  0.00    428.77     85.44
  128                  0.00    428.95     66.95
  129                  0.00    428.95     72.95
  130                  0.00    428.95     87.87
  130B                 0.00    428.95     75.95
  132                  0.00    428.95     95.95
  134                  0.00    428.95    107.95
  135                  0.00    428.95    112.95
  137                  0.00    428.95    119.95
  139                  0.00    428.95     68.95
  14                  63.00    428.31     90.31
  140                  0.00    428.95     77.95
  141                  0.00    428.95     76.95
  142                  0.00    428.95     67.95
  143                  0.00    428.95     87.98
  144                  0.00    428.95     69.95
  146                  0.00    428.95     82.95
  147                  0.00    428.95    107.95
  148                  0.00    428.95     95.95
  149                  0.00    428.95    115.74
  15                   0.00    428.34     93.34
  150                  0.00    428.95    120.88
  151                  0.00    428.95    123.71
  152                  0.00    428.95    118.93
  153                  0.00    428.95    118.95
  154                  0.00    428.95    103.95
  157                  0.00    428.95    125.95
  158A                 0.00    428.95    107.95
  158B                 0.00    428.95    107.95
  16B                  0.00    428.34     94.34
  160                  0.00    428.97     61.97
  162                  0.00    428.97     60.97
  163                  0.00    428.97     54.97
  164                  0.00    428.97     69.31
  165                  0.00    428.97     67.67
  166                  0.00    428.97     67.96
  167                  0.00    428.97     58.33
  169                  0.00    428.97     62.47
  17A                  0.00    428.34     93.34
  170                  0.00    428.97     69.97
  17B                  0.00    428.34     93.34
  171                  0.00    428.97     76.97
  172                  0.00    428.97     88.97
  18B                  0.00    428.34    103.34
  19                   0.00    428.92     70.92
  2                    0.00    428.78    102.78
  20                   0.00    428.96     64.96
  2002                 0.00    428.67     78.67
  2003                 0.00    428.67     78.67
  21                   0.00    428.96     66.23
  22                   0.00    428.96     67.36
  222                  0.00    428.96     78.96
  24                   0.00    428.96     84.96
  25                   0.00    428.95     83.95
  26                   0.00    428.94     80.94
  27                   0.00    428.95     78.95
  28                   0.00    428.95     80.95
  29                   0.00    428.95     72.95
  3                    0.00    428.69     88.34
  30                   0.00    428.95     67.95
  3002                 0.00    428.96     42.96
  3004                 0.00    428.96     42.96
  3005                 0.00    428.96     42.96
  3008                 0.00    428.96     43.96
  3012                 0.00    428.96     58.23
  3013                 0.00    428.96     64.03
  3016                 0.00    428.96     63.96
  3017                 0.00    428.97     46.97
  3018                 0.00    428.97     51.97
  3019                 0.00    428.96     59.57
  3020                 0.00    428.96     60.85
  3024                 0.00    428.96     64.02
  31                   0.00    428.95     71.16
  3152                 0.00    428.96     62.76
  32                   0.00    428.95     70.95
  34                   0.00    428.95     77.93
  35                   0.00    428.95     91.95
  36                   0.00    428.95    100.95
  39                   0.00    428.95    115.95
  41                   0.00    428.95    121.95
  46                   0.00    428.97     52.97
  47                   0.00    428.97     70.79
  48                   0.00    428.97     84.97
  49                   0.00    428.97     76.97
  5                    0.00    428.64     81.64
  52                   0.00    428.97     77.97
  53                   0.00    428.94     72.94
  54                   0.00    428.89     83.89
  55                   0.00    428.84     98.84
  56                   0.00    428.84     94.84
  58                   0.00    428.84     95.84
  59                   0.00    428.84     99.84
  6                    0.00    428.35     76.35
  60                   0.00    428.69     83.69
  61                   0.00    428.69     89.69
  62                 110.00    423.79     69.79
  64                  69.00    428.74     97.74
  65                   0.00    428.73     88.73
  66                   0.00    428.73     89.73
  67                   0.00    428.72     96.72
  68                   0.00    428.71     89.71
  69                   0.00    428.71     77.71
  7                    0.00    428.55     75.55
  70                   0.00    428.67     88.67
  71                  72.00    427.37     90.37
  72                   0.00    428.25     72.25
  73                   0.00    428.25     73.25
  77                   0.00    428.25     72.25
  78                   0.00    428.25     88.11
  79                   0.00    428.55     75.55
  8                    0.00    428.38     78.38
  80                   0.00    428.48     79.48
  81                   0.00    427.64     68.64
  82                  91.00    427.09     69.09
  85                   0.00    428.67     89.67
  86                   0.00    428.67     91.67
  87                 125.00    428.09     68.09
  88                   0.00    428.05     75.05
  89                   0.00    427.97     60.97
  90                   0.00    427.79     71.79
  91                   0.00    427.84     55.84
  92                   0.00    427.42     67.42
  91B                118.00    427.26     67.26
  94                   0.00    428.40     89.40
  95                   0.00    428.25     85.25
  97                   0.00    428.16     97.16
  99                   0.00    427.97     77.97
  74                   0.00    428.24     69.53
  1074                 0.00    428.24     70.24
  11A                 59.00    428.11     85.11
  1011                 0.00    428.16     85.16
  0                -1340.00    429.00      0.00  Reservoir
   
   
  Link Results:
  ----------------------------------------------
                       Flow  Velocity  Headloss
  Link                 m3/h       m/s    /1000m
  ----------------------------------------------
  TU1                 -0.00      0.00      0.00
  TU10                 0.00      0.00      0.00
  TU100               72.00      0.16      0.06
  TU101               72.00      0.10      0.02
  TU102               -0.00      0.00      0.00
  TU103               72.00      0.10      0.02
  TU104              141.00      0.20      0.07
  TU105             1056.00      0.46      0.17
  TU106             1056.00      0.46      0.17
  TU107                0.00      0.00      0.00
  TU108             1056.00      0.46      0.17
  TU109             1197.00      0.52      0.21
  TU11               117.00      0.54      0.88
  TU110             1197.00      0.52      0.21
  TU111                0.00      0.00      0.00
  TU112               -0.00      0.00      0.00
  TU113                0.00      0.00      0.00
  TU114                0.00      0.00      0.00
  TU115             1197.00      0.42      0.12
  TU116             1197.00      0.42      0.12
  TU117               -0.00      0.00      0.00
  TU118                0.00      0.00      0.00
  TU119             1197.00      0.42      0.12
  TU12                 0.00      0.00      0.00
  TU120             1197.00      0.42      0.12
  TU121                0.00      0.00      0.00
  TU122                0.00      0.00      0.00
  TU123               -0.00      0.00      0.00
  TU124                0.00      0.00      0.00
  TU125               -0.00      0.00      0.00
  TU126               -0.00      0.00      0.00
  TU127               -0.00      0.00      0.00
  TU128                0.00      0.00      0.00
  TU129                0.00      0.00      0.00
  TU13                 0.00      0.00      0.00
  TU130               -0.00      0.00      0.00
  TU131               -0.00      0.00      0.00
  TU132                0.00      0.00      0.00
  TU133               -0.00      0.00      0.00
  TU134              118.00      1.27      7.17
  TU135               -0.00      0.00      0.00
  TU136                0.00      0.00      0.00
  TU137                0.00      0.00      0.00
  TU138                0.00      0.00      0.00
  TU139                0.00      0.00      0.00
  TU14               180.00      0.40      0.33
  TU140                0.00      0.00      0.00
  TU141              110.00      1.85     18.58
  TU142              110.00      0.30      0.22
  TU143               -0.00      0.00      0.00
  TU144               -0.00      0.00      0.00
  TU145              118.00      0.82      2.44
  TU146              118.00      0.51      0.80
  TU147              118.00      0.32      0.25
  TU148                0.00      0.00      0.00
  TU149              155.00      1.07      4.02
  TU15                -0.00      0.00      0.00
  TU150              155.00      1.07      4.02
  TU151              273.00      0.39      0.24
  TU152               -0.00      0.00      0.00
  TU15301            398.00      0.56      0.48
  TU15302            398.00      0.56      0.48
  TU1074               0.00      0.00      0.00
  TU154              398.00      0.39      0.20
  TU155               73.00      1.23      8.75
  TU156              471.00      0.46      0.27
  TU157              581.00      0.57      0.40
  TU158                0.00      0.00      0.00
  TU159              581.00      0.57      0.40
  TU16              1340.00      0.24      0.03
  TU160                0.00      0.00      0.00
  TU161              581.00      0.57      0.40
  TU162              475.00      0.34      0.13
  TU163              475.00      0.34      0.13
  TU164              475.00      0.34      0.13
  TU166               -0.00      0.00      0.00
  TU167               91.00      1.20      7.20
  TU168               91.00      1.20      7.20
  TU169               91.00      0.77      2.44
  TU17                -0.00      0.00      0.00
  TU170               91.00      0.42      0.56
  TU171              384.00      0.28      0.09
  TU17201             59.00      0.78      3.27
  TU17202              0.00      0.00      0.00
  TU1011A             59.00      0.78      3.27
  TU173               59.00      0.43      0.79
  TU174               -0.00      0.00      0.00
  TU175               59.00      0.27      0.26
  TU176              229.00      0.22      0.07
  TU177              325.00      0.32      0.14
  TU178              180.00      0.18      0.05
  TU179                0.00      0.00      0.00
  TU18                 0.00      0.00      0.00
  TU180                0.00      0.00      0.00
  TU181                0.00      0.00      0.00
  TU182                0.00      0.00      0.00
  TU183                0.00      0.00      0.00
  TU184                0.00      0.00      0.00
  TU185              143.00      0.32      0.22
  TU186               -0.00      0.00      0.00
  TU187               -0.00      0.00      0.00
  TU188              143.00      0.10      0.01
  TU189              143.00      0.10      0.01
  TU19                 0.00      0.00      0.00
  TU190               -0.00      0.00      0.00
  TU191                0.00      0.00      0.00
  TU192                0.00      0.00      0.00
  TU193                0.00      0.00      0.00
  TU194               -0.00      0.00      0.00
  TU195                0.00      0.00      0.00
  TU196                0.00      0.00      0.00
  TU197                0.00      0.00      0.00
  TU198                0.00      0.00      0.00
  TU199                0.00      0.00      0.00
  TU2                  0.00      0.00      0.00
  TU20                 0.00      0.00      0.00
  TU200               -0.00      0.00      0.00
  TU201                0.00      0.00      0.00
  TU203                0.00      0.00      0.00
  TU204              143.00      0.06      0.00
  TU205              143.00      0.06      0.00
  TU21                -0.00      0.00      0.00
  TU22               143.00      0.08      0.01
  TU23               143.00      0.08      0.01
  TU24               143.00      0.08      0.01
  TU25               143.00      0.08      0.01
  TU26                 0.00      0.00      0.00
  TU27                 0.00      0.00      0.00
  TU28                 0.00      0.00      0.00
  TU29                 0.00      0.00      0.00
  TU3                  0.00      0.00      0.00
  TU30                 0.00      0.00      0.00
  TU31                81.00      0.92      4.13
  TU32                 0.00      0.00      0.00
  TU33                81.00      0.37      0.45
  TU34                81.00      0.37      0.45
  TU35                62.00      1.10      7.44
  TU36                62.00      0.71      2.54
  TU37               143.00      0.41      0.40
  TU38               143.00      0.41      0.40
  TU39                -0.00      0.00      0.00
  TU4                273.00      0.39      0.24
  TU40                -0.00      0.00      0.00
  TU41               143.00      0.32      0.22
  TU42                 0.00      0.00      0.00
  TU43               143.00      0.20      0.08
  TU44               143.00      0.20      0.08
  TU45               143.00      0.20      0.08
  TU46               143.00      0.20      0.08
  TU47                -0.00      0.00      0.00
  TU48                 0.00      0.00      0.00
  TU49                 0.00      0.00      0.00
  TU5                273.00      0.39      0.24
  TU50                 0.00      0.00      0.00
  TU51                 0.00      0.00      0.00
  TU52                 0.00      0.00      0.00
  TU53                 0.00      0.00      0.00
  TU54                 0.00      0.00      0.00
  TU55                 0.00      0.00      0.00
  TU56                 0.00      0.00      0.00
  TU57                 0.00      0.00      0.00
  TU58                 0.00      0.00      0.00
  TU59                 0.00      0.00      0.00
  TU6                143.00      0.20      0.08
  TU60                 0.00      0.00      0.00
  TU61                 0.00      0.00      0.00
  TU62                -0.00      0.00      0.00
  TU63                 0.00      0.00      0.00
  TU64                 0.00      0.00      0.00
  TU65                 0.00      0.00      0.00
  TU66                 0.00      0.00      0.00
  TU67                 0.00      0.00      0.00
  TU68                 0.00      0.00      0.00
  TU69                 0.00      0.00      0.00
  TU7                  0.00      0.00      0.00
  TU70                 0.00      0.00      0.00
  TU71                 0.00      0.00      0.00
  TU72                 0.00      0.00      0.00
  TU73                 0.00      0.00      0.00
  TU74                 0.00      0.00      0.00
  TU75                 0.00      0.00      0.00
  TU76                 0.00      0.00      0.00
  TU77                 0.00      0.00      0.00
  TU78                 0.00      0.00      0.00
  TU79                 0.00      0.00      0.00
  TU8                117.00      1.26      7.06
  TU80                 0.00      0.00      0.00
  TU81                 0.00      0.00      0.00
  TU82                 0.00      0.00      0.00
  TU83                 0.00      0.00      0.00
  TU84                 0.00      0.00      0.00
  TU85                 0.00      0.00      0.00
  TU86                 0.00      0.00      0.00
  TU87                 0.00      0.00      0.00
  TU88                 0.00      0.00      0.00
  TU89                 0.00      0.00      0.00
  TU9                  0.00      0.00      0.00
  TU90                 0.00      0.00      0.00
  TU91                -0.00      0.00      0.00
  TU92                -0.00      0.00      0.00
  TU93                 0.00      0.00      0.00
  TU94                72.00      0.82      3.33
  TU95                72.00      0.20      0.12
  TU96                 0.00      0.00      0.00
  TU97                 0.00      0.00      0.00
  TU98                 0.00      0.00      0.00
  TU99                72.00      0.16      0.06
  TU4000               0.00      0.00      0.00
   
  Analysis ended Fri Dec  1 10:07:37 2023
