  Page 1                                    Fri Dec  1 09:53:22 2023

  ******************************************************************
  *                           E P A N E T                          *
  *                   Hydraulic and Water Quality                  *
  *                   Analysis for Pipe Networks                   *
  *                         Version 2.2                            *
  ******************************************************************
  
  Analysis begun Fri Dec  1 09:53:22 2023

   
  Node Results:
  ----------------------------------------------
                     Demand      Head  Pressure
  Node                 m3/h         m         m
  ----------------------------------------------
  3661                 0.00    428.82     50.68
  482                  0.00    427.23     81.23
  661                  0.00    428.30     98.30
  6610                 0.00    427.61      2.49
  6611                 0.00    428.30     93.30
  6612                 0.00    427.75     65.38
  6613                 0.00    427.39     72.39
  6615                 0.00    428.77     89.77
  6616                 0.00    428.57     67.57
  6617                 0.00    428.25     85.25
  6618                 0.00    428.70     80.70
  662                  0.00    428.59    100.59
  6620                 0.00    428.54    120.54
  6621                 0.00    428.54    100.54
  6622                 0.00    428.54     91.54
  6623                 0.00    428.54     77.54
  6624                 0.00    428.54     76.54
  6625                 0.00    428.42    116.42
  6626                 0.00    428.42    107.42
  6627                 0.00    428.30    107.30
  6628                 0.00    428.39     89.39
  6629                 0.00    428.39     88.39
  663                  0.00    428.41     87.41
  6630                 0.00    428.39      3.27
  6632                 0.00    428.42     88.42
  6633                 0.00    428.80     66.16
  6634                 0.00    428.82     57.82
  6635                 0.00    428.41     76.41
  6636                 0.00    428.41     72.41
  6637                 0.00    428.22     61.22
  6639                 0.00    427.66     67.66
  664                  0.00    428.37     80.37
  6640                 0.00    427.61     67.61
  6641                 0.00    427.70     69.02
  6642                 0.00    427.70     71.70
  6643                 0.00    427.87     75.87
  6644                 0.00    427.98     75.98
  6645                 0.00    428.04     78.04
  6646                 0.00    427.86     80.84
  6648                 0.00    427.86     81.85
  6649                 0.00    428.28     89.28
  665                  0.00    428.36     83.36
  666                  0.00    428.39     88.39
  6665                 0.00    427.61     62.47
  6666                 0.00    427.95     60.29
  667                  0.00    427.97     75.97
  668                  0.00    428.29     98.29
  669                  0.00    428.39     83.39
  1                    0.00    428.70     98.70
  10                   0.00    427.87     75.87
  100                  0.00    427.70     72.70
  100B                93.00    427.00     69.00
  101                  0.00    427.39     74.39
  103                  0.00    428.28     89.28
  104                  0.00    428.28     89.28
  105                 85.00    427.37     72.37
  106                 55.00    427.31     72.31
  107                  0.00    428.77     89.77
  108                  0.00    428.77     93.21
  109                  0.00    428.77     91.77
  11B                  0.00    428.35     85.35
  110                  0.00    428.70     82.70
  111                  0.00    428.67     90.69
  112                  0.00    428.69     86.69
  113                  0.00    428.64    105.64
  114                  0.00    428.50     80.50
  115                  0.00    428.36     82.36
  116                  0.00    428.41     83.41
  117                  0.00    428.25     85.25
  118                 70.00    427.37     88.37
  119                  0.00    427.37    104.56
  12                   0.00    428.33     97.99
  121                  0.00    428.58     78.58
  122                 51.00    426.05     79.05
  123                  0.00    428.08     82.08
  125                  0.00    428.58     77.58
  126                  0.00    428.58     80.58
  127                  0.00    428.58     85.25
  128                  0.00    428.56     66.56
  129                  0.00    428.41     72.41
  130                141.00    428.31     87.23
  130B                 0.00    428.37     75.37
  132                  0.00    426.42     93.42
  134                  0.00    428.30    107.30
  135                  0.00    428.30    112.30
  137                  0.00    428.30    119.30
  139                  0.00    428.29     68.29
  14                   0.00    428.28     90.28
  140                  0.00    428.29     77.29
  141                  0.00    428.29     76.29
  142                  0.00    428.29     67.29
  143                 61.00    423.65     82.68
  144                  0.00    428.50     69.50
  146                  0.00    428.45     82.45
  147                 48.00    428.25    107.25
  148                 58.00    428.44     95.44
  149                  0.00    428.42    115.21
  15                   0.00    428.30     93.30
  150                  0.00    428.42    120.35
  151                  0.00    428.42    123.18
  152                  0.00    428.42    118.40
  153                  0.00    428.42    118.42
  154                  0.00    428.54    103.54
  157                  0.00    428.54    125.54
  158A                 0.00    428.54    107.54
  158B                 0.00    428.54    107.54
  16B                  0.00    428.30     94.30
  160                  0.00    428.20     61.20
  162                  0.00    428.08     60.08
  163                 80.00    427.70     53.70
  164                 56.00    427.78     68.12
  165                  0.00    427.61     66.31
  166                 82.00    427.61     66.60
  167                  0.00    427.61     56.97
  169                 56.00    427.65     61.15
  17A                  0.00    428.30     93.30
  170                  0.00    428.32     69.32
  17B                  0.00    428.30     93.30
  171                  0.00    428.41     76.41
  172                  0.00    428.41     88.41
  18B                  0.00    428.30    103.30
  19                   0.00    428.80     70.80
  2                    0.00    428.61    102.61
  20                   0.00    428.82     64.82
  2002                 0.00    428.39     78.39
  2003                 0.00    428.39     78.39
  21                   0.00    428.81     66.08
  22                   0.00    428.81     67.21
  222                  0.00    428.78     78.78
  24                   0.00    428.77     84.77
  25                   0.00    428.74     83.74
  26                   0.00    428.70     80.70
  27                   0.00    428.71     78.71
  28                   0.00    428.68     80.68
  29                  60.00    428.58     72.58
  3                    0.00    428.51     88.16
  30                   0.00    428.57     67.57
  3002                 0.00    428.82     42.82
  3004                 0.00    428.82     42.82
  3005                 0.00    428.82     42.82
  3008                 0.00    428.82     43.82
  3012                 0.00    428.82     58.09
  3013                 0.00    428.82     63.89
  3016                 0.00    428.83     63.83
  3017               138.00    428.86     46.86
  3018                63.00    428.30     51.30
  3019                 0.00    428.82     59.43
  3020                 0.00    428.82     60.71
  3024                 0.00    428.82     63.88
  31                   0.00    428.55     70.76
  3152                 0.00    428.82     62.62
  32                   0.00    428.56     70.56
  34                   0.00    428.54     77.52
  35                   0.00    428.54     91.54
  36                   0.00    428.54    100.54
  39                   0.00    428.54    115.54
  41                   0.00    428.54    121.54
  46                 182.00    428.50     52.50
  47                   0.00    427.73     69.55
  48                   0.00    426.82     82.82
  49                  89.00    423.65     71.65
  5                    0.00    428.46     81.46
  52                  80.00    423.62     72.62
  53                 150.00    425.41     69.41
  54                   0.00    428.76     83.76
  55                   0.00    428.70     98.70
  56                   0.00    428.70     94.70
  58                   0.00    428.70     95.70
  59                   0.00    428.70     99.70
  6                   56.00    427.79     75.79
  60                   0.00    428.51     83.51
  61                   0.00    428.51     89.51
  62                 108.00    423.39     69.39
  64                   0.00    428.52     97.52
  65                  94.00    427.99     87.99
  66                  75.00    428.42     89.42
  67                 118.00    428.39     96.39
  68                   0.00    428.39     89.39
  69                   0.00    428.39     77.39
  7                    0.00    428.39     75.39
  70                   0.00    428.39     88.39
  71                   0.00    428.39     91.39
  72                  98.00    427.70     71.70
  73                 174.00    427.85     72.85
  77                   0.00    427.70     71.70
  78                   0.00    427.70     87.56
  79                  44.00    428.39     75.39
  8                    0.00    428.04     78.04
  80                   0.00    428.36     79.36
  81                  68.00    426.19     67.19
  82                   0.00    427.86     69.86
  85                   0.00    428.39     89.39
  86                   0.00    428.39     91.39
  87                 102.00    427.76     67.76
  88                   0.00    427.75     74.75
  89                  82.00    427.71     60.71
  90                   0.00    427.70     71.70
  91                   0.00    427.66     55.66
  92                   0.00    427.61     67.61
  91B                  0.00    427.61     67.61
  94                   0.00    428.28     89.28
  95                   0.00    428.11     85.11
  97                   0.00    428.00     97.00
  99                   0.00    427.71     77.71
  74                  72.00    425.89     67.18
  1074                 0.00    427.84     69.84
  11A                 64.00    427.94     84.94
  1011                 0.00    428.00     85.00
  0                -2853.00    429.00      0.00  Reservoir
   
   
  Link Results:
  ----------------------------------------------
                       Flow  Velocity  Headloss
  Link                 m3/h       m/s    /1000m
  ----------------------------------------------
  TU1                 -0.00      0.00      0.00
  TU10                85.00      0.92      3.94
  TU100              118.00      0.26      0.16
  TU101              193.00      0.27      0.13
  TU102               94.00      1.67     15.95
  TU103              287.00      0.41      0.26
  TU104              287.00      0.41      0.26
  TU105             1101.00      0.48      0.18
  TU106             1101.00      0.48      0.18
  TU107                0.00      0.00      0.00
  TU108             1101.00      0.48      0.18
  TU109             1388.00      0.61      0.27
  TU11               140.00      0.64      1.22
  TU110             1388.00      0.61      0.27
  TU111                0.00      0.00      0.00
  TU112               -0.00      0.00      0.00
  TU113                0.00      0.00      0.00
  TU114                0.00      0.00      0.00
  TU115             1388.00      0.49      0.16
  TU116             1388.00      0.49      0.16
  TU117              150.00      1.62     11.14
  TU118                0.00      0.00      0.00
  TU119             1388.00      0.49      0.16
  TU12                 0.00      0.00      0.00
  TU120             1538.00      0.54      0.20
  TU121                0.00      0.00      0.00
  TU122                0.00      0.00      0.00
  TU123               -0.00      0.00      0.00
  TU124               80.00      0.91      4.04
  TU125              169.00      1.23      5.36
  TU126              169.00      0.77      1.72
  TU127              169.00      0.77      1.72
  TU128                0.00      0.00      0.00
  TU129                0.00      0.00      0.00
  TU13                 0.00      0.00      0.00
  TU130               -0.00      0.00      0.00
  TU131               82.00      0.36      0.41
  TU132               56.00      0.24      0.21
  TU133              138.00      0.60      1.06
  TU134               -0.00      0.00      0.00
  TU135              274.00      0.61      0.71
  TU136              274.00      0.61      0.71
  TU137              443.00      0.63      0.58
  TU138              443.00      0.63      0.58
  TU139              443.00      0.44      0.24
  TU14               140.00      0.31      0.21
  TU140              688.00      0.68      0.54
  TU141              108.00      1.82     17.96
  TU142              206.00      0.56      0.69
  TU143               -0.00      0.00      0.00
  TU144               93.00      1.00      4.64
  TU145               -0.00      0.00      0.00
  TU146               93.00      0.40      0.52
  TU147               93.00      0.25      0.16
  TU148                0.00      0.00      0.00
  TU149               -0.00      0.00      0.00
  TU15                -0.00      0.00      0.00
  TU150               -0.00      0.00      0.00
  TU151               93.00      0.13      0.03
  TU152               -0.00      0.00      0.00
  TU15301            349.00      0.49      0.38
  TU15302            277.00      0.39      0.25
  TU1074              72.00      0.95      4.70
  TU154              523.00      0.51      0.33
  TU155                0.00      0.00      0.00
  TU156              523.00      0.51      0.33
  TU157              729.00      0.72      0.60
  TU158               56.00      1.00      6.18
  TU159              785.00      0.77      0.69
  TU16              2853.00      0.51      0.12
  TU160                0.00      0.00      0.00
  TU161              785.00      0.77      0.69
  TU162              316.00      0.23      0.06
  TU163              272.00      0.20      0.05
  TU164              316.00      0.23      0.06
  TU166               68.00      1.40     12.60
  TU167               -0.00      0.00      0.00
  TU168                0.00      0.00      0.00
  TU169               68.00      0.57      1.44
  TU17                -0.00      0.00      0.00
  TU170               68.00      0.31      0.33
  TU171              204.00      0.15      0.03
  TU17201             64.00      0.84      3.79
  TU17202              0.00      0.00      0.00
  TU1011A             64.00      0.84      3.79
  TU173               64.00      0.47      0.92
  TU174               -0.00      0.00      0.00
  TU175               64.00      0.29      0.30
  TU176              140.00      0.14      0.03
  TU177              140.00      0.14      0.03
  TU178              140.00      0.14      0.03
  TU179                0.00      0.00      0.00
  TU18                 0.00      0.00      0.00
  TU180                0.00      0.00      0.00
  TU181                0.00      0.00      0.00
  TU182                0.00      0.00      0.00
  TU183                0.00      0.00      0.00
  TU184                0.00      0.00      0.00
  TU185              121.00      0.27      0.16
  TU186              194.00      0.52      0.62
  TU187              274.00      0.61      0.71
  TU188              489.00      0.35      0.14
  TU189              489.00      0.35      0.14
  TU19                 0.00      0.00      0.00
  TU190               -0.00      0.00      0.00
  TU191                0.00      0.00      0.00
  TU192                0.00      0.00      0.00
  TU193                0.00      0.00      0.00
  TU194               -0.00      0.00      0.00
  TU195                0.00      0.00      0.00
  TU196                0.00      0.00      0.00
  TU197                0.00      0.00      0.00
  TU198                0.00      0.00      0.00
  TU199                0.00      0.00      0.00
  TU2                  0.00      0.00      0.00
  TU20                 0.00      0.00      0.00
  TU200               -0.00      0.00      0.00
  TU201                0.00      0.00      0.00
  TU203               63.00      1.06      6.69
  TU204              489.00      0.21      0.04
  TU205              489.00      0.21      0.04
  TU21                -0.00      0.00      0.00
  TU22               489.00      0.27      0.07
  TU23               489.00      0.27      0.07
  TU24               489.00      0.27      0.07
  TU25               489.00      0.27      0.07
  TU26               308.00      0.30      0.12
  TU27               308.00      0.30      0.12
  TU28               368.00      0.36      0.17
  TU29               368.00      0.36      0.17
  TU3                  0.00      0.00      0.00
  TU30                 0.00      0.00      0.00
  TU31                70.00      0.80      3.17
  TU32                 0.00      0.00      0.00
  TU33                70.00      0.32      0.35
  TU34                70.00      0.32      0.35
  TU35                51.00      0.91      5.21
  TU36                51.00      0.58      1.79
  TU37               121.00      0.34      0.30
  TU38               121.00      0.34      0.30
  TU39                -0.00      0.00      0.00
  TU4                175.00      0.25      0.11
  TU40                -0.00      0.00      0.00
  TU41               121.00      0.27      0.16
  TU42                80.00      0.55      1.21
  TU43               121.00      0.17      0.06
  TU44               121.00      0.17      0.06
  TU45               121.00      0.17      0.06
  TU46               121.00      0.17      0.06
  TU47                -0.00      0.00      0.00
  TU48                 0.00      0.00      0.00
  TU49                 0.00      0.00      0.00
  TU5                175.00      0.25      0.11
  TU50                 0.00      0.00      0.00
  TU51                 0.00      0.00      0.00
  TU52                 0.00      0.00      0.00
  TU53                 0.00      0.00      0.00
  TU54                 0.00      0.00      0.00
  TU55                 0.00      0.00      0.00
  TU56                 0.00      0.00      0.00
  TU57                 0.00      0.00      0.00
  TU58                 0.00      0.00      0.00
  TU59                 0.00      0.00      0.00
  TU6                121.00      0.17      0.06
  TU60                -0.00      0.00      0.00
  TU61                 0.00      0.00      0.00
  TU62                -0.00      0.00      0.00
  TU63                 0.00      0.00      0.00
  TU64                 0.00      0.00      0.00
  TU65                48.00      0.99      6.67
  TU66                48.00      0.16      0.08
  TU67               106.00      0.30      0.23
  TU68               106.00      0.30      0.23
  TU69               106.00      0.15      0.04
  TU7                  0.00      0.00      0.00
  TU70               106.00      0.15      0.04
  TU71               106.00      0.15      0.04
  TU72                61.00      0.13      0.05
  TU73               202.00      0.45      0.41
  TU74               202.00      0.45      0.41
  TU75               202.00      0.45      0.41
  TU76               202.00      0.45      0.41
  TU77               202.00      0.45      0.41
  TU78                 0.00      0.00      0.00
  TU79                 0.00      0.00      0.00
  TU8                  0.00      0.00      0.00
  TU80                 0.00      0.00      0.00
  TU81                 0.00      0.00      0.00
  TU82                61.00      1.09      7.22
  TU83                61.00      0.80      3.47
  TU84                 0.00      0.00      0.00
  TU85                 0.00      0.00      0.00
  TU86                 0.00      0.00      0.00
  TU87                 0.00      0.00      0.00
  TU88                61.00      0.13      0.05
  TU89                 0.00      0.00      0.00
  TU9                 55.00      0.93      5.22
  TU90                 0.00      0.00      0.00
  TU91                -0.00      0.00      0.00
  TU92                -0.00      0.00      0.00
  TU93                 0.00      0.00      0.00
  TU94                 0.00      0.00      0.00
  TU95                 0.00      0.00      0.00
  TU96                 0.00      0.00      0.00
  TU97                 0.00      0.00      0.00
  TU98                 0.00      0.00      0.00
  TU99                 0.00      0.00      0.00
  TU4000               0.00      0.00      0.00
   
  Analysis ended Fri Dec  1 09:53:22 2023
