  Page 1                                    Fri Dec  1 10:08:11 2023

  ******************************************************************
  *                           E P A N E T                          *
  *                   Hydraulic and Water Quality                  *
  *                   Analysis for Pipe Networks                   *
  *                         Version 2.2                            *
  ******************************************************************
  
  Analysis begun Fri Dec  1 10:08:11 2023

   
  Node Results:
  ----------------------------------------------
                     Demand      Head  Pressure
  Node                 m3/h         m         m
  ----------------------------------------------
  3661                 0.00    428.91     50.77
  482                  0.00    428.93     82.93
  661                  0.00    428.72     98.72
  6610                 0.00    426.54      1.42
  6611                 0.00    427.40     92.40
  6612                 0.00    427.80     65.43
  6613                 0.00    426.58     71.58
  6615                 0.00    428.87     89.87
  6616                 0.00    428.76     67.76
  6617                 0.00    428.68     85.68
  6618                 0.00    428.81     80.81
  662                  0.00    428.71    100.71
  6620                 0.00    428.73    120.73
  6621                 0.00    428.73    100.73
  6622                 0.00    428.73     91.73
  6623                 0.00    428.73     77.73
  6624                 0.00    428.73     76.73
  6625                 0.00    428.53    116.53
  6626                 0.00    428.64    107.64
  6627                 0.00    428.72    107.72
  6628                 0.00    427.59     88.59
  6629                 0.00    428.66     88.66
  663                  0.00    428.48     87.48
  6630                 0.00    428.69      3.57
  6632                 0.00    428.70     88.70
  6633                 0.00    428.89     66.25
  6634                 0.00    428.91     57.91
  6635                 0.00    428.94     76.94
  6636                 0.00    428.94     72.94
  6637                 0.00    428.93     61.93
  6639                 0.00    427.30     67.30
  664                  0.00    428.33     80.33
  6640                 0.00    427.03     67.03
  6641                 0.00    427.50     68.82
  6642                 0.00    427.38     71.38
  6643                 0.00    428.15     76.15
  6644                 0.00    428.25     76.25
  6645                 0.00    428.27     78.27
  6646                 0.00    428.33     81.31
  6648                 0.00    428.33     82.32
  6649                 0.00    428.17     89.17
  665                  0.00    428.21     83.21
  666                  0.00    428.69     88.69
  6665                 0.00    428.90     63.76
  6666                 0.00    428.91     61.25
  667                  0.00    428.24     76.24
  668                  0.00    428.72     98.72
  669                  0.00    428.64     83.64
  1                    0.00    428.80     98.80
  10                   0.00    428.15     76.15
  100                171.00    427.32     72.32
  100B                81.00    426.56     68.56
  101                153.00    425.92     72.92
  103                  0.00    427.62     88.62
  104                  0.00    427.62     88.62
  105                  0.00    426.58     71.58
  106                  0.00    426.58     71.58
  107                  0.00    428.87     89.87
  108                  0.00    428.87     93.31
  109                  0.00    428.87     91.87
  11B                 94.00    428.15     85.15
  110                  0.00    428.80     82.80
  111                 52.00    428.78     90.80
  112                  0.00    428.79     86.79
  113                  0.00    428.77    105.77
  114                  0.00    428.74     80.74
  115                 56.00    428.68     82.68
  116                  0.00    428.71     83.71
  117                  0.00    428.68     85.68
  118                  0.00    428.68     89.68
  119                  0.00    428.68    105.87
  12                 100.00    427.89     97.55
  121                  0.00    428.76     78.76
  122                  0.00    428.71     81.71
  123                  0.00    428.71     82.71
  125                  0.00    428.76     77.76
  126                  0.00    428.76     80.76
  127                  0.00    428.76     85.43
  128                  0.00    428.76     66.76
  129                  0.00    428.73     72.73
  130                 62.00    428.72     87.64
  130B                 0.00    428.73     75.73
  132                  0.00    428.72     95.72
  134                  0.00    428.72    107.72
  135                  0.00    428.72    112.72
  137                  0.00    428.72    119.72
  139                  0.00    428.72     68.72
  14                  55.00    427.62     89.62
  140                  0.00    428.72     77.72
  141                  0.00    428.72     76.72
  142                  0.00    428.72     67.72
  143                  0.00    428.72     87.75
  144                 42.00    428.74     69.74
  146                  0.00    428.69     82.69
  147                  0.00    428.64    107.64
  148                  0.00    428.68     95.68
  149                  0.00    428.53    115.32
  15                   0.00    427.40     92.40
  150                  0.00    428.40    120.33
  151                  0.00    428.12    122.88
  152                 73.00    425.96    115.94
  153                  0.00    426.70    116.70
  154                  0.00    428.73    103.73
  157                  0.00    428.73    125.73
  158A                 0.00    428.73    107.73
  158B                 0.00    428.73    107.73
  16B                  0.00    427.66     93.66
  160                  0.00    428.93     61.93
  162                  0.00    428.92     60.92
  163                  0.00    428.91     54.91
  164                 58.00    428.90     69.24
  165                  0.00    428.90     67.60
  166                  0.00    428.90     67.89
  167                  0.00    428.90     58.26
  169                  0.00    428.90     62.40
  17A                  0.00    427.21     92.21
  170                  0.00    428.93     69.93
  17B                  0.00    427.03     92.03
  171                  0.00    428.94     76.94
  172                  0.00    428.94     88.94
  18B                217.00    421.39     96.39
  19                   0.00    428.89     70.89
  2                    0.00    428.73    102.73
  20                   0.00    428.91     64.91
  2002                 0.00    428.64     78.64
  2003                 0.00    428.64     78.64
  21                   0.00    428.90     66.17
  22                   0.00    428.90     67.30
  222                  0.00    428.88     78.88
  24                   0.00    428.87     84.87
  25                   0.00    428.84     83.84
  26                  91.00    428.46     80.46
  27                   0.00    428.82     78.82
  28                   0.00    428.81     80.81
  29                   0.00    428.77     72.77
  3                    0.00    428.61     88.26
  30                   0.00    428.76     67.76
  3002                 0.00    428.91     42.91
  3004                 0.00    428.91     42.91
  3005                 0.00    428.91     42.91
  3008                 0.00    428.91     43.91
  3012                 0.00    428.91     58.18
  3013                 0.00    428.91     63.98
  3016                 0.00    428.92     63.92
  3017                 0.00    428.94     46.94
  3018                 0.00    428.94     51.94
  3019                 0.00    428.91     59.52
  3020                 0.00    428.91     60.80
  3024                 0.00    428.91     63.97
  31                  50.00    428.74     70.95
  3152                 0.00    428.91     62.71
  32                   0.00    428.75     70.75
  34                   0.00    428.73     77.71
  35                   0.00    428.73     91.73
  36                   0.00    428.73    100.73
  39                   0.00    428.73    115.73
  41                   0.00    428.73    121.73
  46                   0.00    428.94     52.94
  47                   0.00    428.90     70.72
  48                   0.00    428.93     84.93
  49                   0.00    428.93     76.93
  5                    0.00    428.55     81.55
  52                   0.00    428.93     77.93
  53                   0.00    428.91     72.91
  54                   0.00    428.86     83.86
  55                   0.00    428.80     98.80
  56                   0.00    428.80     94.80
  58                   0.00    428.80     95.80
  59                   0.00    428.80     99.80
  6                    0.00    428.25     76.25
  60                   0.00    428.61     83.61
  61                   0.00    428.61     89.61
  62                   0.00    428.24     74.24
  64                   0.00    428.70     97.70
  65                   0.00    428.70     88.70
  66                   0.00    428.70     89.70
  67                   0.00    428.69     96.69
  68                   0.00    428.69     89.69
  69                   0.00    428.69     77.69
  7                    0.00    428.40     75.40
  70                   0.00    428.57     88.57
  71                   0.00    428.66     91.66
  72                   0.00    428.24     72.24
  73                   0.00    428.13     73.13
  77                   0.00    428.24     72.24
  78                   0.00    428.24     88.10
  79                   0.00    428.40     75.40
  8                   69.00    428.01     78.01
  80                   0.00    428.33     79.33
  81                   0.00    428.33     69.33
  82                   0.00    428.33     70.33
  85                  51.00    427.38     88.38
  86                   0.00    427.59     90.59
  87                 110.00    427.88     67.88
  88                   0.00    427.80     74.80
  89                   0.00    427.64     60.64
  90                   0.00    427.38     71.38
  91                   0.00    427.30     55.30
  92                   0.00    426.54     66.54
  91B                146.00    426.30     66.30
  94                   0.00    428.17     89.17
  95                   0.00    428.07     85.07
  97                   0.00    428.01     97.01
  99                   0.00    427.64     77.64
  74                   0.00    428.11     69.40
  1074                 0.00    428.11     70.11
  11A                 47.00    427.98     84.98
  1011                 0.00    428.01     85.01
  0                -1778.00    429.00      0.00  Reservoir
   
   
  Link Results:
  ----------------------------------------------
                       Flow  Velocity  Headloss
  Link                 m3/h       m/s    /1000m
  ----------------------------------------------
  TU1                 -0.00      0.00      0.00
  TU10                 0.00      0.00      0.00
  TU100               51.00      0.11      0.03
  TU101               51.00      0.07      0.01
  TU102                0.00      0.00      0.00
  TU103               51.00      0.07      0.01
  TU104               51.00      0.07      0.01
  TU105             1243.00      0.54      0.22
  TU106             1243.00      0.54      0.22
  TU107                0.00      0.00      0.00
  TU108             1243.00      0.54      0.22
  TU109             1294.00      0.57      0.24
  TU11               153.00      0.70      1.44
  TU110             1294.00      0.57      0.24
  TU111                0.00      0.00      0.00
  TU112               -0.00      0.00      0.00
  TU113                0.00      0.00      0.00
  TU114                0.00      0.00      0.00
  TU115             1294.00      0.46      0.14
  TU116             1294.00      0.46      0.14
  TU117                0.00      0.00      0.00
  TU118                0.00      0.00      0.00
  TU119             1294.00      0.46      0.14
  TU12                 0.00      0.00      0.00
  TU120             1294.00      0.46      0.14
  TU121                0.00      0.00      0.00
  TU122                0.00      0.00      0.00
  TU123               -0.00      0.00      0.00
  TU124                0.00      0.00      0.00
  TU125               -0.00      0.00      0.00
  TU126               -0.00      0.00      0.00
  TU127               -0.00      0.00      0.00
  TU128                0.00      0.00      0.00
  TU129                0.00      0.00      0.00
  TU13                 0.00      0.00      0.00
  TU130                0.00      0.00      0.00
  TU131               -0.00      0.00      0.00
  TU132                0.00      0.00      0.00
  TU133               -0.00      0.00      0.00
  TU134              146.00      1.58     10.60
  TU135               58.00      0.13      0.04
  TU136               58.00      0.13      0.04
  TU137               58.00      0.08      0.02
  TU138               58.00      0.08      0.02
  TU139               58.00      0.06      0.01
  TU14               208.00      0.46      0.43
  TU140               58.00      0.06      0.01
  TU141                0.00      0.00      0.00
  TU142                0.00      0.00      0.00
  TU143               -0.00      0.00      0.00
  TU144               81.00      0.87      3.61
  TU145              146.00      1.01      3.60
  TU146              227.00      0.99      2.62
  TU147              227.00      0.61      0.82
  TU148               -0.00      0.00      0.00
  TU149              171.00      1.18      4.81
  TU15                -0.00      0.00      0.00
  TU150              171.00      1.18      4.81
  TU151              398.00      0.56      0.48
  TU152               -0.00      0.00      0.00
  TU15301            508.00      0.72      0.75
  TU15302            508.00      0.72      0.75
  TU1074               0.00      0.00      0.00
  TU154              508.00      0.50      0.31
  TU155                0.00      0.00      0.00
  TU156              508.00      0.50      0.31
  TU157              508.00      0.50      0.31
  TU158                0.00      0.00      0.00
  TU159              508.00      0.50      0.31
  TU16              1778.00      0.32      0.05
  TU160               69.00      1.23      9.05
  TU161              577.00      0.57      0.39
  TU162              666.00      0.48      0.24
  TU163              666.00      0.48      0.24
  TU164              666.00      0.48      0.24
  TU166               -0.00      0.00      0.00
  TU167               -0.00      0.00      0.00
  TU168                0.00      0.00      0.00
  TU169                0.00      0.00      0.00
  TU17                -0.00      0.00      0.00
  TU170                0.00      0.00      0.00
  TU171              666.00      0.48      0.24
  TU17201             47.00      0.62      2.17
  TU17202              0.00      0.00      0.00
  TU1011A             47.00      0.62      2.17
  TU173               47.00      0.34      0.53
  TU174               -0.00      0.00      0.00
  TU175               47.00      0.22      0.17
  TU176              525.00      0.52      0.33
  TU177              619.00      0.61      0.44
  TU178              425.00      0.42      0.22
  TU179              217.00      0.62      0.85
  TU18                 0.00      0.00      0.00
  TU180              217.00      0.62      0.85
  TU181              217.00      1.83     11.99
  TU182              217.00      0.99      2.72
  TU183                0.00      0.00      0.00
  TU184                0.00      0.00      0.00
  TU185               56.00      0.12      0.04
  TU186               58.00      0.16      0.07
  TU187               58.00      0.13      0.04
  TU188              426.00      0.31      0.11
  TU189              426.00      0.31      0.11
  TU19                 0.00      0.00      0.00
  TU190               73.00      0.96      4.81
  TU191                0.00      0.00      0.00
  TU192                0.00      0.00      0.00
  TU193                0.00      0.00      0.00
  TU194               -0.00      0.00      0.00
  TU195                0.00      0.00      0.00
  TU196                0.00      0.00      0.00
  TU197               -0.00      0.00      0.00
  TU198                0.00      0.00      0.00
  TU199                0.00      0.00      0.00
  TU2                  0.00      0.00      0.00
  TU20                 0.00      0.00      0.00
  TU200               -0.00      0.00      0.00
  TU201                0.00      0.00      0.00
  TU203                0.00      0.00      0.00
  TU204              426.00      0.19      0.03
  TU205              426.00      0.19      0.03
  TU21                73.00      0.61      1.64
  TU22               426.00      0.24      0.06
  TU23               426.00      0.24      0.06
  TU24               426.00      0.24      0.06
  TU25               426.00      0.24      0.06
  TU26               227.00      0.22      0.07
  TU27               227.00      0.22      0.07
  TU28               227.00      0.22      0.07
  TU29               227.00      0.22      0.07
  TU3                  0.00      0.00      0.00
  TU30                 0.00      0.00      0.00
  TU31                -0.00      0.00      0.00
  TU32                 0.00      0.00      0.00
  TU33                 0.00      0.00      0.00
  TU34                56.00      0.26      0.23
  TU35                -0.00      0.00      0.00
  TU36                 0.00      0.00      0.00
  TU37                56.00      0.16      0.07
  TU38                56.00      0.16      0.07
  TU39                -0.00      0.00      0.00
  TU4                398.00      0.56      0.48
  TU40                 0.00      0.00      0.00
  TU41                56.00      0.12      0.04
  TU42                 0.00      0.00      0.00
  TU43               108.00      0.15      0.05
  TU44               108.00      0.15      0.05
  TU45               108.00      0.15      0.05
  TU46               199.00      0.28      0.14
  TU47                91.00      1.62     15.02
  TU48                 0.00      0.00      0.00
  TU49                 0.00      0.00      0.00
  TU5                398.00      0.56      0.48
  TU50                 0.00      0.00      0.00
  TU51                 0.00      0.00      0.00
  TU52                 0.00      0.00      0.00
  TU53                 0.00      0.00      0.00
  TU54                 0.00      0.00      0.00
  TU55                 0.00      0.00      0.00
  TU56                 0.00      0.00      0.00
  TU57                 0.00      0.00      0.00
  TU58                 0.00      0.00      0.00
  TU59                 0.00      0.00      0.00
  TU6                 56.00      0.08      0.01
  TU60                73.00      1.50     14.35
  TU61                 0.00      0.00      0.00
  TU62                73.00      0.39      0.54
  TU63                 0.00      0.00      0.00
  TU64                73.00      0.39      0.54
  TU65                 0.00      0.00      0.00
  TU66                73.00      0.24      0.17
  TU67                73.00      0.21      0.12
  TU68                73.00      0.21      0.12
  TU69                73.00      0.10      0.02
  TU7                  0.00      0.00      0.00
  TU70               123.00      0.17      0.06
  TU71               123.00      0.17      0.06
  TU72                 0.00      0.00      0.00
  TU73                62.00      0.14      0.05
  TU74                62.00      0.14      0.05
  TU75                62.00      0.14      0.05
  TU76               104.00      0.23      0.12
  TU77               104.00      0.23      0.13
  TU78                 0.00      0.00      0.00
  TU79                 0.00      0.00      0.00
  TU8                153.00      1.65     11.56
  TU80                 0.00      0.00      0.00
  TU81                 0.00      0.00      0.00
  TU82                 0.00      0.00      0.00
  TU83                 0.00      0.00      0.00
  TU84                 0.00      0.00      0.00
  TU85                 0.00      0.00      0.00
  TU86                 0.00      0.00      0.00
  TU87                 0.00      0.00      0.00
  TU88                 0.00      0.00      0.00
  TU89                51.00      0.91      5.22
  TU9                  0.00      0.00      0.00
  TU90                 0.00      0.00      0.00
  TU91                51.00      0.58      1.79
  TU92                51.00      0.23      0.20
  TU93                51.00      0.14      0.06
  TU94                 0.00      0.00      0.00
  TU95                51.00      0.14      0.06
  TU96                 0.00      0.00      0.00
  TU97                 0.00      0.00      0.00
  TU98                 0.00      0.00      0.00
  TU99                51.00      0.11      0.03
  TU4000               0.00      0.00      0.00
   
  Analysis ended Fri Dec  1 10:08:11 2023
