  Page 1                                    Fri Dec  1 09:59:48 2023

  ******************************************************************
  *                           E P A N E T                          *
  *                   Hydraulic and Water Quality                  *
  *                   Analysis for Pipe Networks                   *
  *                         Version 2.2                            *
  ******************************************************************
  
  Analysis begun Fri Dec  1 09:59:48 2023

   
  Node Results:
  ----------------------------------------------
                     Demand      Head  Pressure
  Node                 m3/h         m         m
  ----------------------------------------------
  3661                 0.00    428.30     50.16
  482                  0.00    426.83     80.83
  661                  0.00    427.12     97.12
  6610                 0.00    421.52     -3.60
  6611                 0.00    423.10     88.10
  6612                 0.00    424.32     61.95
  6613                 0.00    422.76     67.76
  6615                 0.00    427.70     88.70
  6616                 0.00    427.38     66.38
  6617                 0.00    426.57     83.57
  6618                 0.00    427.67     79.67
  662                  0.00    427.23     99.23
  6620                 0.00    427.17    119.17
  6621                 0.00    427.17     99.17
  6622                 0.00    427.17     90.17
  6623                 0.00    427.17     76.17
  6624                 0.00    427.18     75.18
  6625                 0.00    425.49    113.49
  6626                 0.00    426.45    105.45
  6627                 0.00    425.99    104.99
  6628                 0.00    425.04     86.04
  6629                 0.00    426.48     86.48
  663                  0.00    426.36     85.36
  6630                 0.00    426.64      1.52
  6632                 0.00    426.81     86.81
  6633                 0.00    428.22     65.58
  6634                 0.00    428.32     57.32
  6635                 0.00    427.98     75.98
  6636                 0.00    427.98     71.98
  6637                 0.00    427.73     60.73
  6639                 0.00    422.98     62.98
  664                  0.00    425.79     77.79
  6640                 0.00    422.54     62.54
  6641                 0.00    423.73     65.05
  6642                 0.00    423.72     67.72
  6643                 0.00    425.10     73.10
  6644                 0.00    425.42     73.42
  6645                 0.00    425.54     75.54
  6646                 0.00    423.78     76.76
  6648                 0.00    424.06     78.05
  6649                 0.00    425.43     86.43
  665                  0.00    425.51     80.51
  666                  0.00    426.64     86.64
  6665                 0.00    426.56     61.42
  6666                 0.00    427.41     59.75
  667                  0.00    425.39     73.39
  668                  0.00    427.11     97.11
  669                  0.00    426.45     81.45
  1                   76.00    427.74     97.74
  10                   0.00    425.10     73.10
  100                 48.00    423.71     68.71
  100B                77.00    422.12     64.12
  101                 66.00    422.62     69.62
  103                  0.00    421.84     82.84
  104                147.00    421.69     82.69
  105                 85.00    422.74     67.74
  106                  0.00    422.76     67.76
  107                 80.00    427.38     88.38
  108                  0.00    427.70     92.14
  109                  0.00    427.70     90.70
  11B                 97.00    425.34     82.34
  110                 64.00    427.62     81.62
  111                 50.00    427.49     89.51
  112                  0.00    427.56     85.56
  113                  0.00    427.35    104.35
  114                  0.00    427.03     79.03
  115                 50.00    426.73     80.73
  116                  0.00    426.92     81.92
  117                 89.00    426.44     83.44
  118                  0.00    426.57     87.57
  119                  0.00    426.57    103.76
  12                 137.00    424.62     94.28
  121                 63.00    427.14     77.14
  122                  0.00    426.92     79.92
  123                  0.00    426.92     80.92
  125                  0.00    427.13     76.13
  126                 52.00    427.06     79.06
  127                  0.00    427.06     83.73
  128                 67.00    427.37     65.37
  129                  0.00    427.26     71.26
  130                  0.00    427.18     86.10
  130B                 0.00    427.22     74.22
  132                 60.00    425.29     92.29
  134                 62.00    425.68    104.68
  135                 51.00    425.52    109.52
  137                  0.00    425.52    116.52
  139                  0.00    427.11     67.11
  14                  96.00    423.78     85.78
  140                  0.00    427.11     76.11
  141                  0.00    427.11     75.11
  142                  0.00    427.11     66.11
  143                  0.00    425.29     84.32
  144                  0.00    427.32     68.32
  146                  0.00    426.81     80.81
  147                  0.00    426.45    105.45
  148                  0.00    426.76     93.76
  149                 64.00    425.22    112.01
  15                   0.00    423.10     88.10
  150                  0.00    424.87    116.80
  151                 99.00    423.55    118.31
  152                 72.00    421.45    111.43
  153                  0.00    422.16    112.16
  154                  0.00    427.17    102.17
  157                  0.00    427.17    124.17
  158A                 0.00    427.17    106.17
  158B                 0.00    427.17    106.17
  16B                  0.00    423.91     89.91
  160                 68.00    427.69     60.69
  162                  0.00    427.56     59.56
  163                  0.00    427.41     53.41
  164                 61.00    427.07     67.41
  165                 63.00    426.56     65.26
  166                 91.00    426.56     65.55
  167                  0.00    426.56     55.92
  169                 77.00    426.78     60.28
  17A                  0.00    422.54     87.54
  170                  0.00    427.87     68.87
  17B                182.00    421.98     86.98
  171                  0.00    427.98     75.98
  172                  0.00    427.98     87.98
  18B                215.00    416.44     91.44
  19                   0.00    428.22     70.22
  2                    0.00    427.34    101.34
  20                  87.00    428.30     64.30
  2002                 0.00    426.45     76.45
  2003                 0.00    426.45     76.45
  21                   0.00    428.24     65.51
  22                   0.00    428.23     66.63
  222                  0.00    428.09     78.09
  24                   0.00    428.00     84.00
  25                   0.00    427.87     82.87
  26                  89.00    427.33     79.33
  27                   0.00    427.75     77.75
  28                  65.00    427.65     79.65
  29                  55.00    427.41     71.41
  3                   67.00    426.85     86.50
  30                   0.00    427.39     66.39
  3002                 0.00    428.30     42.30
  3004                 0.00    428.30     42.30
  3005                 0.00    428.30     42.30
  3008                 0.00    428.30     43.30
  3012                 0.00    428.30     57.57
  3013                 0.00    428.30     63.37
  3016                 0.00    428.36     63.36
  3017               121.00    428.53     46.53
  3018                68.00    427.87     50.87
  3019                 0.00    428.30     58.91
  3020                 0.00    428.30     60.19
  3024                 0.00    428.30     63.36
  31                   0.00    427.25     69.46
  3152                 0.00    428.30     62.10
  32                   0.00    427.31     69.31
  34                  70.00    427.01     75.99
  35                   0.00    427.17     90.17
  36                   0.00    427.17     99.17
  39                   0.00    427.17    114.17
  41                   0.00    427.17    120.17
  46                 162.00    428.10     52.10
  47                   0.00    426.94     68.76
  48                   0.00    426.44     82.44
  49                  81.00    423.55     71.55
  5                    0.00    426.59     79.59
  52                  80.00    423.52     72.52
  53                 125.00    425.88     69.88
  54                   0.00    428.05     83.05
  55                   0.00    427.69     97.69
  56                  49.00    427.67     93.67
  58                   0.00    427.67     94.67
  59                   0.00    427.67     98.67
  6                   60.00    425.21     73.21
  60                   0.00    426.85     81.85
  61                   0.00    426.85     87.85
  62                   0.00    425.32     71.32
  64                  78.00    427.02     96.02
  65                  92.00    426.40     86.40
  66                  81.00    426.81     87.81
  67                 120.00    426.67     94.67
  68                   0.00    426.64     87.64
  69                   0.00    426.64     75.64
  7                   64.00    426.03     73.03
  70                   0.00    426.36     86.36
  71                  87.00    424.65     87.65
  72                  96.00    425.32     69.32
  73                 164.00    425.02     70.02
  77                   0.00    425.32     69.32
  78                   0.00    425.32     85.18
  79                   0.00    426.03     73.03
  8                   64.00    425.31     75.31
  80                  94.00    425.66     76.66
  81                   0.00    424.06     65.06
  82                 129.00    423.02     65.02
  85                  60.00    424.76     85.76
  86                   0.00    425.04     88.04
  87                 117.00    424.49     64.49
  88                   0.00    424.32     71.32
  89                  64.00    423.95     56.95
  90                   0.00    423.72     67.72
  91                 165.00    422.62     50.62
  92                  60.00    421.47     61.47
  91B                158.00    421.25     61.25
  94                   0.00    425.43     86.43
  95                   0.00    425.26     82.26
  97                   0.00    425.15     94.15
  99                  61.00    423.41     73.41
  74                  76.00    422.82     64.11
  1074                 0.00    424.97     66.97
  11A                 64.00    425.09     82.09
  1011                 0.00    425.15     82.15
  0                -5582.00    429.00      0.00  Reservoir
   
   
  Link Results:
  ----------------------------------------------
                       Flow  Velocity  Headloss
  Link                 m3/h       m/s    /1000m
  ----------------------------------------------
  TU1                 60.00      0.65      2.15
  TU10                85.00      0.92      3.94
  TU100              267.00      0.59      0.68
  TU101              348.00      0.49      0.37
  TU102               92.00      1.64     15.33
  TU103              440.00      0.62      0.58
  TU104              518.00      0.73      0.78
  TU105             2586.00      1.13      0.86
  TU106             2586.00      1.13      0.86
  TU107                0.00      0.00      0.00
  TU108             2653.00      1.16      0.90
  TU109             3171.00      1.38      1.25
  TU11               151.00      0.69      1.40
  TU110             3171.00      1.38      1.25
  TU111                0.00      0.00      0.00
  TU112               -0.00      0.00      0.00
  TU113               49.00      0.26      0.26
  TU114               49.00      0.26      0.26
  TU115             3296.00      1.17      0.80
  TU116             3296.00      1.17      0.80
  TU117              125.00      1.35      7.97
  TU118                0.00      0.00      0.00
  TU119             3296.00      1.17      0.80
  TU12               147.00      1.68     12.31
  TU120             3421.00      1.21      0.86
  TU121                0.00      0.00      0.00
  TU122                0.00      0.00      0.00
  TU123               -0.00      0.00      0.00
  TU124               80.00      0.91      4.04
  TU125              161.00      1.18      4.91
  TU126              161.00      0.74      1.58
  TU127              161.00      0.74      1.58
  TU128                0.00      0.00      0.00
  TU129                0.00      0.00      0.00
  TU13               147.00      1.07      4.15
  TU130               63.00      0.27      0.25
  TU131              154.00      0.67      1.29
  TU132               77.00      0.34      0.37
  TU133              231.00      1.01      2.70
  TU134              158.00      1.71     12.26
  TU135              292.00      0.65      0.80
  TU136              360.00      0.80      1.17
  TU137              521.00      0.74      0.78
  TU138              521.00      0.74      0.78
  TU139              521.00      0.51      0.32
  TU14               394.00      0.87      1.39
  TU140              751.00      0.74      0.63
  TU141                0.00      0.00      0.00
  TU142               96.00      0.26      0.17
  TU143              165.00      0.72      1.46
  TU144               77.00      0.83      3.29
  TU145              218.00      1.51      7.51
  TU146              295.00      1.28      4.23
  TU147              460.00      1.24      2.99
  TU148                0.00      0.00      0.00
  TU149               48.00      0.33      0.48
  TU15                -0.00      0.00      0.00
  TU150               48.00      0.33      0.48
  TU151              508.00      0.72      0.75
  TU152               61.00      0.70      2.47
  TU15301            826.00      1.17      1.83
  TU15302            750.00      1.06      1.53
  TU1074              76.00      1.00      5.18
  TU154              990.00      0.97      1.05
  TU155                0.00      0.00      0.00
  TU156              990.00      0.97      1.05
  TU157             1086.00      1.07      1.24
  TU158               60.00      1.07      7.01
  TU159             1146.00      1.13      1.37
  TU16              5582.00      1.01      0.41
  TU160               64.00      1.14      7.88
  TU161             1210.00      1.19      1.52
  TU162             1376.00      0.99      0.91
  TU163             1312.00      0.95      0.83
  TU164             1312.00      0.95      0.83
  TU166               -0.00      0.00      0.00
  TU167              129.00      1.70     13.66
  TU168              129.00      1.70     13.66
  TU169              129.00      1.09      4.61
  TU17                -0.00      0.00      0.00
  TU170              223.00      1.02      2.86
  TU171             1089.00      0.79      0.59
  TU17201             64.00      0.84      3.79
  TU17202              0.00      0.00      0.00
  TU1011A             64.00      0.84      3.79
  TU173               64.00      0.47      0.92
  TU174               -0.00      0.00      0.00
  TU175               64.00      0.29      0.30
  TU176              928.00      0.91      0.93
  TU177             1025.00      1.01      1.12
  TU178              791.00      0.78      0.70
  TU179              397.00      1.13      2.58
  TU18                 0.00      0.00      0.00
  TU180              397.00      1.13      2.58
  TU181              215.00      1.81     11.79
  TU182              397.00      1.82      8.27
  TU183                0.00      0.00      0.00
  TU184                0.00      0.00      0.00
  TU185              254.00      0.56      0.62
  TU186              292.00      0.79      1.30
  TU187              292.00      0.65      0.80
  TU188             1122.00      0.81      0.63
  TU189             1122.00      0.81      0.63
  TU19                80.00      1.42     11.86
  TU190               72.00      0.95      4.70
  TU191               -0.00      0.00      0.00
  TU192                0.00      0.00      0.00
  TU193                0.00      0.00      0.00
  TU194               -0.00      0.00      0.00
  TU195                0.00      0.00      0.00
  TU196                0.00      0.00      0.00
  TU197               -0.00      0.00      0.00
  TU198                0.00      0.00      0.00
  TU199                0.00      0.00      0.00
  TU2                  0.00      0.00      0.00
  TU20                80.00      0.58      1.37
  TU200               -0.00      0.00      0.00
  TU201                0.00      0.00      0.00
  TU203               68.00      1.14      7.69
  TU204             1289.00      0.56      0.24
  TU205             1289.00      0.56      0.24
  TU21               171.00      1.44      7.73
  TU22              1202.00      0.66      0.37
  TU23              1202.00      0.66      0.37
  TU24              1202.00      0.66      0.37
  TU25              1202.00      0.66      0.37
  TU26               545.00      0.54      0.35
  TU27               545.00      0.54      0.35
  TU28               600.00      0.59      0.42
  TU29               665.00      0.65      0.51
  TU3                  0.00      0.00      0.00
  TU30                 0.00      0.00      0.00
  TU31                -0.00      0.00      0.00
  TU32                89.00      1.02      4.91
  TU33                89.00      0.41      0.54
  TU34               139.00      0.64      1.21
  TU35                 0.00      0.00      0.00
  TU36                 0.00      0.00      0.00
  TU37               139.00      0.39      0.38
  TU38               139.00      0.39      0.38
  TU39                -0.00      0.00      0.00
  TU4                633.00      0.90      1.12
  TU40                52.00      0.38      0.63
  TU41               191.00      0.42      0.37
  TU42                 0.00      0.00      0.00
  TU43               304.00      0.43      0.29
  TU44               304.00      0.43      0.29
  TU45               368.00      0.52      0.42
  TU46               457.00      0.65      0.62
  TU47                89.00      1.58     14.42
  TU48                 0.00      0.00      0.00
  TU49                 0.00      0.00      0.00
  TU5                633.00      0.90      1.12
  TU50                 0.00      0.00      0.00
  TU51                 0.00      0.00      0.00
  TU52                 0.00      0.00      0.00
  TU53                 0.00      0.00      0.00
  TU54                 0.00      0.00      0.00
  TU55                 0.00      0.00      0.00
  TU56                -0.00      0.00      0.00
  TU57                 0.00      0.00      0.00
  TU58                70.00      1.25      9.29
  TU59                70.00      0.20      0.11
  TU6                254.00      0.36      0.21
  TU60                72.00      1.48     13.99
  TU61                 0.00      0.00      0.00
  TU62               171.00      0.91      2.53
  TU63                64.00      1.32     11.27
  TU64               235.00      1.25      4.52
  TU65                 0.00      0.00      0.00
  TU66               235.00      0.78      1.43
  TU67               235.00      0.67      0.99
  TU68               235.00      0.67      0.99
  TU69               305.00      0.43      0.30
  TU7                  0.00      0.00      0.00
  TU70               305.00      0.43      0.30
  TU71               305.00      0.43      0.30
  TU72               173.00      0.38      0.31
  TU73               173.00      0.38      0.31
  TU74               173.00      0.38      0.31
  TU75               173.00      0.38      0.31
  TU76               173.00      0.38      0.31
  TU77               240.00      0.53      0.56
  TU78                 0.00      0.00      0.00
  TU79                51.00      0.67      2.51
  TU8                 66.00      0.71      2.49
  TU80                62.00      1.28     10.64
  TU81               113.00      0.95      3.62
  TU82                 0.00      0.00      0.00
  TU83                60.00      0.79      3.37
  TU84                 0.00      0.00      0.00
  TU85                 0.00      0.00      0.00
  TU86                 0.00      0.00      0.00
  TU87                 0.00      0.00      0.00
  TU88                60.00      0.13      0.05
  TU89                60.00      1.07      7.01
  TU9                  0.00      0.00      0.00
  TU90                 0.00      0.00      0.00
  TU91                60.00      0.69      2.40
  TU92                60.00      0.27      0.27
  TU93                60.00      0.17      0.08
  TU94                87.00      0.99      4.71
  TU95               147.00      0.42      0.42
  TU96                 0.00      0.00      0.00
  TU97                 0.00      0.00      0.00
  TU98                 0.00      0.00      0.00
  TU99               147.00      0.32      0.23
  TU4000               0.00      0.00      0.00
   
  Analysis ended Fri Dec  1 09:59:48 2023
