  Page 1                                    Fri Dec  1 10:04:44 2023

  ******************************************************************
  *                           E P A N E T                          *
  *                   Hydraulic and Water Quality                  *
  *                   Analysis for Pipe Networks                   *
  *                         Version 2.2                            *
  ******************************************************************
  
  Analysis begun Fri Dec  1 10:04:44 2023

   
  Node Results:
  ----------------------------------------------
                     Demand      Head  Pressure
  Node                 m3/h         m         m
  ----------------------------------------------
  3661                 0.00    427.74     49.60
  482                  0.00    426.83     80.83
  661                  0.00    423.06     93.06
  6610                 0.00    423.38     -1.74
  6611                 0.00    423.11     88.11
  6612                 0.00    424.49     62.12
  6613                 0.00    422.29     67.29
  6615                 0.00    426.12     87.12
  6616                 0.00    424.97     63.97
  6617                 0.00    423.09     80.09
  6618                 0.00    426.18     78.18
  662                  0.00    427.11     99.11
  6620                 0.00    423.75    115.75
  6621                 0.00    424.26     96.26
  6622                 0.00    424.38     87.38
  6623                 0.00    424.49     73.49
  6624                 0.00    424.55     72.55
  6625                 0.00    423.18    111.18
  6626                 0.00    423.64    102.64
  6627                 0.00    420.73     99.73
  6628                 0.00    425.11     86.11
  6629                 0.00    426.51     86.51
  663                  0.00    426.29     85.29
  6630                 0.00    426.25      1.13
  6632                 0.00    426.81     86.81
  6633                 0.00    428.10     65.46
  6634                 0.00    428.20     57.20
  6635                 0.00    428.04     76.04
  6636                 0.00    428.04     72.04
  6637                 0.00    427.76     60.76
  6639                 0.00    423.61     63.61
  664                  0.00    425.80     77.80
  6640                 0.00    423.48     63.48
  6641                 0.00    424.00     65.32
  6642                 0.00    423.99     67.99
  6643                 0.00    425.09     73.09
  6644                 0.00    425.35     73.35
  6645                 0.00    425.47     75.47
  6646                 0.00    423.88     76.86
  6648                 0.00    424.16     78.15
  6649                 0.00    425.55     86.55
  665                  0.00    425.55     80.55
  666                  0.00    426.67     86.67
  6665                 0.00    425.78     60.64
  6666                 0.00    427.24     59.58
  667                  0.00    425.32     73.32
  668                  0.00    423.05     93.05
  669                  0.00    426.48     81.48
  1                  103.00    427.57     97.57
  10                   0.00    425.09     73.09
  100                 51.00    423.98     68.98
  100B                90.00    422.91     64.91
  101                 95.00    422.02     69.02
  103                 48.00    420.46     81.46
  104                150.00    420.30     81.30
  105                 93.00    422.27     67.27
  106                  0.00    422.29     67.29
  107                 76.00    425.83     86.83
  108                 63.00    425.16     89.60
  109                  0.00    425.91     88.91
  11B                113.00    425.37     82.37
  110                 65.00    426.11     80.11
  111                  0.00    425.86     87.88
  112                  0.00    425.99     83.99
  113                  0.00    425.52    102.52
  114                  0.00    424.54     76.54
  115                 54.00    423.65     77.65
  116                  0.00    424.12     79.12
  117                 67.00    423.01     80.01
  118                 69.00    421.10     82.10
  119                 40.00    418.34     95.53
  12                 139.00    424.65     94.31
  121                 59.00    424.99     74.99
  122                 67.00    420.24     73.24
  123                  0.00    423.57     77.57
  125                  0.00    424.95     73.95
  126                 66.00    424.84     76.84
  127                  0.00    424.84     81.51
  128                 66.00    424.90     62.90
  129                  0.00    423.88     67.88
  130                129.00    423.29     82.21
  130B                62.00    423.60     70.60
  132                 60.00    416.58     83.58
  134                 62.00    420.42     99.42
  135                 49.00    418.95    102.95
  137                 57.00    415.23    106.23
  139                 66.00    422.62     62.62
  14                   0.00    423.82     85.82
  140                  0.00    422.85     71.85
  141                  0.00    422.84     70.84
  142                  0.00    422.62     61.62
  143                 60.00    413.90     72.93
  144                 88.00    424.38     65.38
  146                  0.00    424.03     78.03
  147                 76.00    423.24    102.24
  148                 48.00    423.95     90.95
  149                  0.00    423.18    109.97
  15                   0.00    423.11     88.11
  150                 85.00    422.63    114.56
  151                  0.00    422.34    117.10
  152                 74.00    420.14    110.12
  153                  0.00    420.89    110.89
  154                  0.00    424.21     99.21
  157                  0.00    423.75    120.75
  158A                57.00    416.54     95.54
  158B                57.00    416.53     95.53
  16B                  0.00    423.94     89.94
  160                  0.00    427.72     60.72
  162                  0.00    427.49     59.49
  163                 87.00    426.96     52.96
  164                 59.00    426.89     67.23
  165                 62.00    425.89     64.59
  166                 94.00    425.89     64.88
  167                 84.00    425.65     55.01
  169                  0.00    426.75     60.25
  17A                  0.00    422.53     87.53
  170                  0.00    427.91     68.91
  17B                179.00    421.95     86.95
  171                  0.00    428.04     76.04
  172                  0.00    428.04     88.04
  18B                225.00    415.92     90.92
  19                   0.00    428.10     70.10
  2                    0.00    427.21    101.21
  20                  83.00    427.74     63.74
  2002                 0.00    426.48     76.48
  2003                 0.00    426.48     76.48
  21                  65.00    427.54     64.81
  22                  73.00    427.53     65.93
  222                  0.00    427.16     77.16
  24                   0.00    426.94     82.94
  25                   0.00    426.62     81.62
  26                  89.00    425.85     77.85
  27                   0.00    426.31     76.31
  28                  62.00    425.97     77.97
  29                  57.00    425.11     69.11
  3                   69.00    426.76     86.41
  30                   0.00    425.01     64.01
  3002                 0.00    427.74     41.74
  3004                 0.00    427.74     41.74
  3005                 0.00    427.74     41.74
  3008                 0.00    427.74     42.74
  3012                 0.00    427.74     57.01
  3013                 0.00    427.74     62.81
  3016               132.00    427.89     62.89
  3017                 0.00    428.41     46.41
  3018                 0.00    428.17     51.17
  3019                 0.00    427.74     58.35
  3020                 0.00    427.74     59.63
  3024                 0.00    427.74     62.80
  31                   0.00    424.70     66.91
  3152                 0.00    427.74     61.54
  32                   0.00    424.82     66.82
  34                  67.00    424.34     73.32
  35                   0.00    424.38     87.38
  36                   0.00    424.26     96.26
  39                   0.00    424.04    111.04
  41                   0.00    423.58    116.58
  46                   0.00    428.17     52.17
  47                   0.00    426.75     68.57
  48                   0.00    426.44     82.44
  49                  79.00    423.48     71.48
  5                    0.00    426.51     79.51
  52                  84.00    423.45     72.45
  53                   0.00    428.20     72.20
  54                   0.00    427.91     82.91
  55                   0.00    426.39     96.39
  56                  52.00    425.81     91.81
  58                  96.00    422.22     89.22
  59                 161.00    418.60     89.60
  6                   60.00    425.14     73.14
  60                   0.00    426.76     81.76
  61                   0.00    426.76     87.76
  62                   0.00    425.05     71.05
  64                  58.00    426.97     95.97
  65                  82.00    426.47     86.47
  66                  87.00    426.81     87.81
  67                   0.00    426.72     94.72
  68                   0.00    426.25     87.25
  69                  60.00    425.44     74.44
  7                   62.00    426.00     73.00
  70                   0.00    426.39     86.39
  71                  86.00    424.72     87.72
  72                  96.00    425.05     69.05
  73                 176.00    425.03     70.03
  77                 113.00    421.83     65.83
  78                   0.00    425.05     84.91
  79                  61.00    426.00     73.00
  8                   68.00    425.22     75.22
  80                   0.00    425.76     76.76
  81                   0.00    424.16     65.16
  82                 129.00    423.12     65.12
  85                  59.00    424.84     85.84
  86                   0.00    425.11     88.11
  87                   0.00    424.65     64.65
  88                   0.00    424.49     71.49
  89                  99.00    424.13     57.13
  90                   0.00    423.99     67.99
  91                 175.00    423.20     51.20
  92                  60.00    423.33     63.33
  91B                  0.00    423.38     63.38
  94                   0.00    425.55     86.55
  95                   0.00    425.55     82.55
  97                   0.00    425.55     94.55
  99                 146.00    421.47     71.47
  74                  78.00    422.74     64.03
  1074                 0.00    424.99     66.99
  11A                  0.00    425.55     82.55
  1011                 0.00    425.55     82.55
  0                -6318.00    429.00      0.00  Reservoir
   
   
  Link Results:
  ----------------------------------------------
                       Flow  Velocity  Headloss
  Link                 m3/h       m/s    /1000m
  ----------------------------------------------
  TU1                 60.00      0.65      2.15
  TU10                93.00      1.00      4.64
  TU100              205.00      0.45      0.42
  TU101              292.00      0.41      0.27
  TU102               82.00      1.46     12.41
  TU103              374.00      0.53      0.43
  TU104              432.00      0.61      0.56
  TU105             2506.00      1.09      0.81
  TU106             2506.00      1.09      0.81
  TU107                0.00      0.00      0.00
  TU108             2575.00      1.12      0.85
  TU109             3007.00      1.31      1.13
  TU11               188.00      0.86      2.09
  TU110             3007.00      1.31      1.13
  TU111              161.00      2.12     20.56
  TU112              257.00      1.88     11.61
  TU113              309.00      1.64      7.49
  TU114              309.00      1.64      7.49
  TU115             3419.00      1.21      0.86
  TU116             3419.00      1.21      0.86
  TU117               -0.00      0.00      0.00
  TU118                0.00      0.00      0.00
  TU119             3419.00      1.21      0.86
  TU12               150.00      1.71     12.78
  TU120             3419.00      1.21      0.86
  TU121                0.00      0.00      0.00
  TU122                0.00      0.00      0.00
  TU123               -0.00      0.00      0.00
  TU124               84.00      0.96      4.42
  TU125              163.00      1.19      5.02
  TU126              163.00      0.75      1.61
  TU127              163.00      0.75      1.61
  TU128               84.00      0.37      0.43
  TU129               84.00      0.37      0.43
  TU13               198.00      1.45      7.17
  TU130              146.00      0.64      1.17
  TU131              240.00      1.05      2.90
  TU132                0.00      0.00      0.00
  TU133              240.00      1.05      2.90
  TU134               -0.00      0.00      0.00
  TU135              386.00      0.85      1.34
  TU136              386.00      0.85      1.33
  TU137              549.00      0.78      0.86
  TU138              549.00      0.78      0.86
  TU139              549.00      0.54      0.36
  TU14               386.00      0.85      1.33
  TU140              549.00      0.54      0.36
  TU141                0.00      0.00      0.00
  TU142              209.00      0.56      0.71
  TU143              175.00      0.76      1.63
  TU144               90.00      0.97      4.37
  TU145               60.00      0.42      0.72
  TU146              150.00      0.65      1.23
  TU147              325.00      0.88      1.58
  TU148               -0.00      0.00      0.00
  TU149               51.00      0.35      0.54
  TU15                -0.00      0.00      0.00
  TU150               51.00      0.35      0.54
  TU151              376.00      0.53      0.43
  TU152              146.00      1.67     12.15
  TU15301            699.00      0.99      1.34
  TU15302            621.00      0.88      1.08
  TU1074              78.00      1.03      5.43
  TU154              875.00      0.86      0.84
  TU155               -0.00      0.00      0.00
  TU156              875.00      0.86      0.84
  TU157             1084.00      1.06      1.24
  TU158               60.00      1.07      7.01
  TU159             1144.00      1.12      1.37
  TU16              6318.00      1.14      0.52
  TU160               68.00      1.21      8.81
  TU161             1212.00      1.19      1.52
  TU162             1294.00      0.93      0.81
  TU163             1171.00      0.85      0.68
  TU164             1232.00      0.89      0.74
  TU166               -0.00      0.00      0.00
  TU167              129.00      1.70     13.66
  TU168              129.00      1.70     13.66
  TU169              129.00      1.09      4.61
  TU17                63.00      1.12      7.66
  TU170              129.00      0.59      1.05
  TU171             1042.00      0.75      0.55
  TU17201             -0.00      0.00      0.00
  TU17202              0.00      0.00      0.00
  TU1011A             -0.00      0.00      0.00
  TU173               -0.00      0.00      0.00
  TU174               -0.00      0.00      0.00
  TU175               -0.00      0.00      0.00
  TU176              929.00      0.91      0.93
  TU177             1042.00      1.02      1.15
  TU178              790.00      0.78      0.69
  TU179              404.00      1.15      2.66
  TU18                63.00      0.72      2.62
  TU180              404.00      1.15      2.66
  TU181              225.00      1.89     12.82
  TU182              404.00      1.85      8.54
  TU183                0.00      0.00      0.00
  TU184                0.00      0.00      0.00
  TU185              422.00      0.93      1.57
  TU186              299.00      0.81      1.36
  TU187              386.00      0.85      1.33
  TU188             1858.00      1.34      1.58
  TU189             1858.00      1.34      1.58
  TU19                76.00      1.35     10.79
  TU190               74.00      0.97      4.94
  TU191               -0.00      0.00      0.00
  TU192                0.00      0.00      0.00
  TU193                0.00      0.00      0.00
  TU194               -0.00      0.00      0.00
  TU195                0.00      0.00      0.00
  TU196                0.00      0.00      0.00
  TU197               -0.00      0.00      0.00
  TU198                0.00      0.00      0.00
  TU199                0.00      0.00      0.00
  TU2                  0.00      0.00      0.00
  TU20               139.00      1.02      3.75
  TU200               -0.00      0.00      0.00
  TU201                0.00      0.00      0.00
  TU203                0.00      0.00      0.00
  TU204             2218.00      0.97      0.65
  TU205             2350.00      1.03      0.72
  TU21                74.00      0.62      1.68
  TU22              1997.00      1.10      0.94
  TU23              1997.00      1.10      0.94
  TU24              2070.00      1.14      1.01
  TU25              2135.00      1.18      1.07
  TU26              1163.00      1.14      1.41
  TU27              1163.00      1.14      1.41
  TU28              1220.00      1.20      1.54
  TU29              1282.00      1.26      1.69
  TU3                  0.00      0.00      0.00
  TU30                40.00      0.82      4.79
  TU31               109.00      1.24      7.11
  TU32                67.00      0.76      2.93
  TU33               176.00      0.81      1.85
  TU34               230.00      1.05      3.02
  TU35                67.00      1.19      8.57
  TU36                67.00      0.76      2.93
  TU37               297.00      0.84      1.52
  TU38               297.00      0.84      1.52
  TU39                -0.00      0.00      0.00
  TU4                621.00      0.88      1.08
  TU40                66.00      0.48      0.97
  TU41               363.00      0.80      1.19
  TU42                87.00      0.60      1.40
  TU43               422.00      0.60      0.53
  TU44               422.00      0.60      0.53
  TU45               487.00      0.69      0.69
  TU46               576.00      0.81      0.94
  TU47                89.00      1.58     14.42
  TU48               114.00      1.50     10.88
  TU49               114.00      0.96      3.68
  TU5                621.00      0.88      1.08
  TU50                 0.00      0.00      0.00
  TU51               114.00      0.61      1.21
  TU52               114.00      0.38      0.39
  TU53               114.00      0.38      0.39
  TU54                 0.00      0.00      0.00
  TU55               114.00      0.38      0.39
  TU56                 0.00      0.00      0.00
  TU57               114.00      0.32      0.27
  TU58                67.00      1.19      8.57
  TU59               181.00      0.51      0.61
  TU6                422.00      0.60      0.53
  TU60                74.00      1.53     14.71
  TU61                 0.00      0.00      0.00
  TU62               159.00      0.84      2.21
  TU63                 0.00      0.00      0.00
  TU64               159.00      0.84      2.21
  TU65                76.00      1.57     15.45
  TU66               235.00      0.78      1.43
  TU67               283.00      0.80      1.39
  TU68               283.00      0.80      1.39
  TU69               464.00      0.66      0.63
  TU7                113.00      1.90     19.53
  TU70               464.00      0.66      0.63
  TU71               464.00      0.66      0.63
  TU72               354.00      0.78      1.14
  TU73               483.00      1.07      2.01
  TU74               545.00      1.20      2.51
  TU75               545.00      1.20      2.52
  TU76               633.00      1.40      3.31
  TU77               699.00      1.55      3.98
  TU78                57.00      1.17      9.12
  TU79               106.00      1.39      9.52
  TU8                 95.00      1.03      4.82
  TU80                62.00      1.28     10.64
  TU81               168.00      1.41      7.48
  TU82                60.00      1.07      7.01
  TU83               120.00      1.58     11.96
  TU84                 0.00      0.00      0.00
  TU85                66.00      0.48      0.97
  TU86                66.00      0.30      0.31
  TU87                66.00      0.35      0.45
  TU88               186.00      0.41      0.35
  TU89                59.00      1.05      6.80
  TU9                  0.00      0.00      0.00
  TU90                 0.00      0.00      0.00
  TU91                59.00      0.67      2.32
  TU92                59.00      0.27      0.26
  TU93                59.00      0.17      0.08
  TU94                86.00      0.98      4.61
  TU95               145.00      0.41      0.41
  TU96                 0.00      0.00      0.00
  TU97                60.00      1.07      7.01
  TU98                60.00      0.69      2.40
  TU99               205.00      0.45      0.42
  TU4000              57.00      0.75      3.07
   
  Analysis ended Fri Dec  1 10:04:44 2023
