  Page 1                                    Fri Dec  1 10:13:50 2023

  ******************************************************************
  *                           E P A N E T                          *
  *                   Hydraulic and Water Quality                  *
  *                   Analysis for Pipe Networks                   *
  *                         Version 2.2                            *
  ******************************************************************
  
  Analysis begun Fri Dec  1 10:13:50 2023

   
  Node Results:
  ----------------------------------------------
                     Demand      Head  Pressure
  Node                 m3/h         m         m
  ----------------------------------------------
  3661                 0.00    428.97     50.83
  482                  0.00    428.96     82.96
  661                  0.00    428.87     98.87
  6610                 0.00    428.13      3.01
  6611                 0.00    428.77     93.77
  6612                 0.00    428.55     66.18
  6613                 0.00    427.50     72.50
  6615                 0.00    428.95     89.95
  6616                 0.00    428.89     67.89
  6617                 0.00    428.88     85.88
  6618                 0.00    428.94     80.94
  662                  0.00    428.92    100.92
  6620                 0.00    427.54    119.54
  6621                 0.00    428.40    100.40
  6622                 0.00    428.60     91.60
  6623                 0.00    428.80     77.80
  6624                 0.00    428.84     76.84
  6625                 0.00    428.84    116.84
  6626                 0.00    428.84    107.84
  6627                 0.00    428.69    107.69
  6628                 0.00    428.91     89.91
  6629                 0.00    428.91     88.91
  663                  0.00    428.87     87.87
  6630                 0.00    428.91      3.79
  6632                 0.00    428.91     88.91
  6633                 0.00    428.96     66.32
  6634                 0.00    428.97     57.97
  6635                 0.00    428.97     76.97
  6636                 0.00    428.97     72.97
  6637                 0.00    428.96     61.96
  6639                 0.00    428.38     68.38
  664                  0.00    428.86     80.86
  6640                 0.00    428.33     68.33
  6641                 0.00    428.42     69.74
  6642                 0.00    428.42     72.42
  6643                 0.00    428.73     76.73
  6644                 0.00    428.78     76.78
  6645                 0.00    428.79     78.79
  6646                 0.00    428.86     81.84
  6648                 0.00    428.86     82.85
  6649                 0.00    428.85     89.85
  665                  0.00    428.85     83.85
  666                  0.00    428.91     88.91
  6665                 0.00    428.88     63.74
  6666                 0.00    428.93     61.27
  667                  0.00    428.78     76.78
  668                  0.00    428.87     98.87
  669                  0.00    428.91     83.91
  1                  105.00    428.94     98.94
  10                   0.00    428.73     76.73
  100                  0.00    428.42     73.42
  100B                 0.00    428.33     70.33
  101                 45.00    427.43     74.43
  103                  0.00    428.74     89.74
  104                  0.00    428.74     89.74
  105                123.00    427.45     72.45
  106                  0.00    427.50     72.50
  107                  0.00    428.95     89.95
  108                  0.00    428.95     93.39
  109                  0.00    428.95     91.95
  11B                  0.00    428.84     85.84
  110                  0.00    428.93     82.93
  111                  0.00    428.93     90.95
  112                  0.00    428.93     86.93
  113                  0.00    428.92    105.92
  114                  0.00    428.89     80.89
  115                  0.00    428.88     82.88
  116                  0.00    428.88     83.88
  117                  0.00    428.88     85.88
  118                  0.00    428.88     89.88
  119                  0.00    428.88    106.07
  12                   0.00    428.81     98.47
  121                  0.00    428.91     78.91
  122                 50.00    426.60     79.60
  123                  0.00    428.55     82.55
  125                  0.00    428.91     77.91
  126                  0.00    428.91     80.91
  127                  0.00    428.91     85.58
  128                  0.00    428.89     66.89
  129                  0.00    428.88     72.88
  130                  0.00    428.88     87.80
  130B                 0.00    428.88     75.88
  132                  0.00    428.87     95.87
  134                  0.00    428.69    107.69
  135                 41.00    428.37    112.37
  137                  0.00    428.37    119.37
  139                  0.00    428.87     68.87
  14                   0.00    428.74     90.74
  140                  0.00    428.87     77.87
  141                  0.00    428.87     76.87
  142                  0.00    428.87     67.87
  143                  0.00    428.87     87.90
  144                  0.00    428.89     69.89
  146                  0.00    428.84     82.84
  147                  0.00    428.84    107.84
  148                  0.00    428.84     95.84
  149                  0.00    428.84    115.63
  15                   0.00    428.77     93.77
  150                  0.00    428.84    120.77
  151                  0.00    428.84    123.60
  152                  0.00    428.84    118.82
  153                  0.00    428.84    118.84
  154                  0.00    428.31    103.31
  157                  0.00    427.54    124.54
  158A                76.00    415.30     94.30
  158B                76.00    415.27     94.27
  16B                  0.00    428.77     94.77
  160                  0.00    428.96     61.96
  162                  0.00    428.94     60.94
  163                  0.00    428.93     54.93
  164                  0.00    428.90     69.24
  165                  0.00    428.88     67.58
  166                  0.00    428.88     67.87
  167                  0.00    428.88     58.24
  169                 80.00    428.71     62.21
  17A                  0.00    428.77     93.77
  170                  0.00    428.96     69.96
  17B                  0.00    428.77     93.77
  171                  0.00    428.97     76.97
  172                  0.00    428.97     88.97
  18B                  0.00    428.77    103.77
  19                   0.00    428.96     70.96
  2                    0.00    428.92    102.92
  20                   0.00    428.97     64.97
  2002                 0.00    428.91     78.91
  2003                 0.00    428.91     78.91
  21                   0.00    428.97     66.24
  22                   0.00    428.97     67.37
  222                  0.00    428.96     78.96
  24                   0.00    428.95     84.95
  25                   0.00    428.94     83.94
  26                   0.00    428.94     80.94
  27                   0.00    428.94     78.94
  28                   0.00    428.93     80.93
  29                   0.00    428.90     72.90
  3                    0.00    428.90     88.55
  30                   0.00    428.89     67.89
  3002                 0.00    428.97     42.97
  3004                 0.00    428.97     42.97
  3005                 0.00    428.97     42.97
  3008                 0.00    428.97     43.97
  3012                 0.00    428.97     58.24
  3013                 0.00    428.97     64.04
  3016                 0.00    428.97     63.97
  3017                 0.00    428.98     46.98
  3018                 0.00    428.97     51.97
  3019                 0.00    428.97     59.58
  3020                 0.00    428.97     60.86
  3024                 0.00    428.97     64.03
  31                   0.00    428.85     71.06
  3152                 0.00    428.97     62.77
  32                   0.00    428.87     70.87
  34                   0.00    428.80     77.78
  35                   0.00    428.60     91.60
  36                   0.00    428.40    100.40
  39                   0.00    428.03    115.03
  41                   0.00    427.26    120.26
  46                   0.00    428.97     52.97
  47                   0.00    428.88     70.70
  48                   0.00    428.96     84.96
  49                   0.00    428.96     76.96
  5                    0.00    428.88     81.88
  52                   0.00    428.96     77.96
  53                   0.00    428.97     72.97
  54                   0.00    428.95     83.95
  55                   0.00    428.94     98.94
  56                   0.00    428.94     94.94
  58                   0.00    428.94     95.94
  59                   0.00    428.94     99.94
  6                    0.00    428.78     76.78
  60                   0.00    428.90     83.90
  61                   0.00    428.90     89.90
  62                   0.00    428.78     74.78
  64                  57.00    428.91     97.91
  65                   0.00    428.91     88.91
  66                   0.00    428.91     89.91
  67                   0.00    428.91     96.91
  68                   0.00    428.91     89.91
  69                   0.00    428.91     77.91
  7                    0.00    428.87     75.87
  70                   0.00    428.91     88.91
  71                   0.00    428.91     91.91
  72                   0.00    428.78     72.78
  73                   0.00    428.72     73.72
  77                   0.00    428.78     72.78
  78                   0.00    428.78     88.64
  79                   0.00    428.87     75.87
  8                    0.00    428.79     78.79
  80                   0.00    428.86     79.86
  81                   0.00    428.86     69.86
  82                   0.00    428.86     70.86
  85                   0.00    428.91     89.91
  86                   0.00    428.91     91.91
  87                   0.00    428.60     68.60
  88                   0.00    428.55     75.55
  89                 107.00    428.43     61.43
  90                   0.00    428.42     72.42
  91                   0.00    428.38     56.38
  92                   0.00    428.13     68.13
  91B                 90.00    428.03     68.03
  94                   0.00    428.85     89.85
  95                   0.00    428.85     85.85
  97                   0.00    428.85     97.85
  99                 143.00    425.87     75.87
  74                   0.00    428.71     70.00
  1074                 0.00    428.71     70.71
  11A                  0.00    428.85     85.85
  1011                 0.00    428.85     85.85
  0                 -993.00    429.00      0.00  Reservoir
   
   
  Link Results:
  ----------------------------------------------
                       Flow  Velocity  Headloss
  Link                 m3/h       m/s    /1000m
  ----------------------------------------------
  TU1                 -0.00      0.00      0.00
  TU10               123.00      1.33      7.74
  TU100                0.00      0.00      0.00
  TU101                0.00      0.00      0.00
  TU102                0.00      0.00      0.00
  TU103                0.00      0.00      0.00
  TU104               57.00      0.08      0.01
  TU105              508.00      0.22      0.04
  TU106              508.00      0.22      0.04
  TU107                0.00      0.00      0.00
  TU108              508.00      0.22      0.04
  TU109              565.00      0.25      0.05
  TU11               168.00      0.77      1.70
  TU110              565.00      0.25      0.05
  TU111                0.00      0.00      0.00
  TU112               -0.00      0.00      0.00
  TU113                0.00      0.00      0.00
  TU114                0.00      0.00      0.00
  TU115              670.00      0.24      0.04
  TU116              670.00      0.24      0.04
  TU117               -0.00      0.00      0.00
  TU118                0.00      0.00      0.00
  TU119              670.00      0.24      0.04
  TU12                 0.00      0.00      0.00
  TU120              670.00      0.24      0.04
  TU121               -0.00      0.00      0.00
  TU122                0.00      0.00      0.00
  TU123               -0.00      0.00      0.00
  TU124                0.00      0.00      0.00
  TU125               -0.00      0.00      0.00
  TU126               -0.00      0.00      0.00
  TU127               -0.00      0.00      0.00
  TU128                0.00      0.00      0.00
  TU129                0.00      0.00      0.00
  TU13                 0.00      0.00      0.00
  TU130                0.00      0.00      0.00
  TU131               -0.00      0.00      0.00
  TU132               80.00      0.35      0.39
  TU133               80.00      0.35      0.39
  TU134               90.00      0.97      4.37
  TU135               80.00      0.18      0.08
  TU136               80.00      0.18      0.08
  TU137               80.00      0.11      0.03
  TU138               80.00      0.11      0.03
  TU139               80.00      0.08      0.01
  TU14               168.00      0.37      0.29
  TU140               80.00      0.08      0.01
  TU141                0.00      0.00      0.00
  TU142                0.00      0.00      0.00
  TU143               -0.00      0.00      0.00
  TU144               -0.00      0.00      0.00
  TU145               90.00      0.62      1.49
  TU146               90.00      0.39      0.49
  TU147               90.00      0.24      0.15
  TU148                0.00      0.00      0.00
  TU149               -0.00      0.00      0.00
  TU15                -0.00      0.00      0.00
  TU150               -0.00      0.00      0.00
  TU151               90.00      0.13      0.03
  TU152              143.00      1.63     11.70
  TU15301            340.00      0.48      0.36
  TU15302            340.00      0.48      0.36
  TU1074               0.00      0.00      0.00
  TU154              340.00      0.33      0.15
  TU155                0.00      0.00      0.00
  TU156              340.00      0.33      0.15
  TU157              340.00      0.33      0.15
  TU158                0.00      0.00      0.00
  TU159              340.00      0.33      0.15
  TU16               993.00      0.18      0.02
  TU160                0.00      0.00      0.00
  TU161              340.00      0.33      0.15
  TU162              168.00      0.12      0.02
  TU163              168.00      0.12      0.02
  TU164              168.00      0.12      0.02
  TU166               -0.00      0.00      0.00
  TU167               -0.00      0.00      0.00
  TU168                0.00      0.00      0.00
  TU169                0.00      0.00      0.00
  TU17                -0.00      0.00      0.00
  TU170                0.00      0.00      0.00
  TU171              168.00      0.12      0.02
  TU17201              0.00      0.00      0.00
  TU17202              0.00      0.00      0.00
  TU1011A             -0.00      0.00      0.00
  TU173               -0.00      0.00      0.00
  TU174               -0.00      0.00      0.00
  TU175               -0.00      0.00      0.00
  TU176              168.00      0.17      0.04
  TU177              168.00      0.17      0.04
  TU178              168.00      0.17      0.04
  TU179                0.00      0.00      0.00
  TU18                 0.00      0.00      0.00
  TU180                0.00      0.00      0.00
  TU181                0.00      0.00      0.00
  TU182                0.00      0.00      0.00
  TU183                0.00      0.00      0.00
  TU184                0.00      0.00      0.00
  TU185               50.00      0.11      0.03
  TU186               80.00      0.22      0.13
  TU187               80.00      0.18      0.08
  TU188              243.00      0.18      0.04
  TU189              243.00      0.18      0.04
  TU19                 0.00      0.00      0.00
  TU190               -0.00      0.00      0.00
  TU191               -0.00      0.00      0.00
  TU192                0.00      0.00      0.00
  TU193                0.00      0.00      0.00
  TU194               -0.00      0.00      0.00
  TU195                0.00      0.00      0.00
  TU196                0.00      0.00      0.00
  TU197               -0.00      0.00      0.00
  TU198                0.00      0.00      0.00
  TU199                0.00      0.00      0.00
  TU2                  0.00      0.00      0.00
  TU20                 0.00      0.00      0.00
  TU200               -0.00      0.00      0.00
  TU201                0.00      0.00      0.00
  TU203                0.00      0.00      0.00
  TU204              243.00      0.11      0.01
  TU205              243.00      0.11      0.01
  TU21                -0.00      0.00      0.00
  TU22               243.00      0.13      0.02
  TU23               243.00      0.13      0.02
  TU24               243.00      0.13      0.02
  TU25               243.00      0.13      0.02
  TU26               193.00      0.19      0.05
  TU27               193.00      0.19      0.05
  TU28               193.00      0.19      0.05
  TU29               193.00      0.19      0.05
  TU3                  0.00      0.00      0.00
  TU30                 0.00      0.00      0.00
  TU31                -0.00      0.00      0.00
  TU32                 0.00      0.00      0.00
  TU33                 0.00      0.00      0.00
  TU34                 0.00      0.00      0.00
  TU35                50.00      0.89      5.03
  TU36                50.00      0.57      1.72
  TU37                50.00      0.14      0.06
  TU38                50.00      0.14      0.06
  TU39                -0.00      0.00      0.00
  TU4                340.00      0.48      0.36
  TU40                -0.00      0.00      0.00
  TU41                50.00      0.11      0.03
  TU42                 0.00      0.00      0.00
  TU43                50.00      0.07      0.01
  TU44                50.00      0.07      0.01
  TU45                50.00      0.07      0.01
  TU46                50.00      0.07      0.01
  TU47                -0.00      0.00      0.00
  TU48               152.00      2.00     18.49
  TU49               152.00      1.28      6.23
  TU5                340.00      0.48      0.36
  TU50                 0.00      0.00      0.00
  TU51               152.00      0.81      2.04
  TU52               152.00      0.50      0.65
  TU53               152.00      0.50      0.65
  TU54                 0.00      0.00      0.00
  TU55               152.00      0.50      0.65
  TU56                 0.00      0.00      0.00
  TU57               152.00      0.43      0.45
  TU58                 0.00      0.00      0.00
  TU59               152.00      0.43      0.45
  TU6                 50.00      0.07      0.01
  TU60                -0.00      0.00      0.00
  TU61                 0.00      0.00      0.00
  TU62                -0.00      0.00      0.00
  TU63                 0.00      0.00      0.00
  TU64                 0.00      0.00      0.00
  TU65                 0.00      0.00      0.00
  TU66                 0.00      0.00      0.00
  TU67                 0.00      0.00      0.00
  TU68                 0.00      0.00      0.00
  TU69               152.00      0.22      0.08
  TU7                  0.00      0.00      0.00
  TU70               152.00      0.22      0.08
  TU71               152.00      0.22      0.08
  TU72                41.00      0.09      0.02
  TU73                41.00      0.09      0.02
  TU74                41.00      0.09      0.02
  TU75                41.00      0.09      0.02
  TU76                41.00      0.09      0.02
  TU77                41.00      0.09      0.02
  TU78                 0.00      0.00      0.00
  TU79                41.00      0.54      1.69
  TU8                 45.00      0.49      1.25
  TU80                 0.00      0.00      0.00
  TU81                41.00      0.35      0.58
  TU82                 0.00      0.00      0.00
  TU83                 0.00      0.00      0.00
  TU84                 0.00      0.00      0.00
  TU85                 0.00      0.00      0.00
  TU86                 0.00      0.00      0.00
  TU87                 0.00      0.00      0.00
  TU88                 0.00      0.00      0.00
  TU89                 0.00      0.00      0.00
  TU9                  0.00      0.00      0.00
  TU90                 0.00      0.00      0.00
  TU91                -0.00      0.00      0.00
  TU92                -0.00      0.00      0.00
  TU93                 0.00      0.00      0.00
  TU94                 0.00      0.00      0.00
  TU95                 0.00      0.00      0.00
  TU96                 0.00      0.00      0.00
  TU97                 0.00      0.00      0.00
  TU98                 0.00      0.00      0.00
  TU99                 0.00      0.00      0.00
  TU4000              76.00      1.00      5.19
   
  Analysis ended Fri Dec  1 10:13:50 2023
