  Page 1                                    Fri Dec  1 10:08:58 2023

  ******************************************************************
  *                           E P A N E T                          *
  *                   Hydraulic and Water Quality                  *
  *                   Analysis for Pipe Networks                   *
  *                         Version 2.2                            *
  ******************************************************************
  
  Analysis begun Fri Dec  1 10:08:58 2023

   
  Node Results:
  ----------------------------------------------
                     Demand      Head  Pressure
  Node                 m3/h         m         m
  ----------------------------------------------
  3661                 0.00    428.62     50.48
  482                  0.00    428.49     82.49
  661                  0.00    428.36     98.36
  6610                 0.00    426.91      1.79
  6611                 0.00    423.98     88.98
  6612                 0.00    426.96     64.59
  6613                 0.00    423.60     68.60
  6615                 0.00    428.33     89.33
  6616                 0.00    428.39     67.39
  6617                 0.00    427.25     84.25
  6618                 0.00    428.37     80.37
  662                  0.00    427.83     99.83
  6620                 0.00    428.37    120.37
  6621                 0.00    428.37    100.37
  6622                 0.00    428.37     91.37
  6623                 0.00    428.37     77.37
  6624                 0.00    428.37     76.37
  6625                 0.00    428.10    116.10
  6626                 0.00    428.25    107.25
  6627                 0.00    428.36    107.36
  6628                 0.00    427.20     88.20
  6629                 0.00    427.20     87.20
  663                  0.00    427.30     86.30
  6630                 0.00    427.01      1.89
  6632                 0.00    427.47     87.47
  6633                 0.00    428.52     65.88
  6634                 0.00    428.59     57.59
  6635                 0.00    428.60     76.60
  6636                 0.00    428.60     72.60
  6637                 0.00    428.49     61.49
  6639                 0.00    426.91     66.91
  664                  0.00    426.70     78.70
  6640                 0.00    426.91     66.91
  6641                 0.00    426.91     68.23
  6642                 0.00    426.91     70.91
  6643                 0.00    427.05     75.05
  6644                 0.00    427.09     75.09
  6645                 0.00    427.11     77.11
  6646                 0.00    424.61     77.59
  6648                 0.00    424.89     78.88
  6649                 0.00    426.17     87.17
  665                  0.00    426.39     81.39
  666                  0.00    427.30     87.30
  6665                 0.00    427.68     62.54
  6666                 0.00    428.23     60.57
  667                  0.00    427.08     75.08
  668                  0.00    428.35     98.35
  669                  0.00    427.20     82.20
  1                   54.00    428.15     98.15
  10                  63.00    426.70     74.70
  100                  0.00    426.91     71.91
  100B                 0.00    426.91     68.91
  101                154.00    422.93     69.93
  103                 45.00    421.39     82.39
  104                150.00    421.23     82.23
  105                  0.00    423.60     68.60
  106                  0.00    423.60     68.60
  107                  0.00    428.33     89.33
  108                 60.00    427.45     91.89
  109                  0.00    428.13     91.13
  11B                118.00    426.22     83.22
  110                  0.00    428.33     82.33
  111                  0.00    428.19     90.21
  112                  0.00    428.26     86.26
  113                  0.00    428.00    105.00
  114                  0.00    427.59     79.59
  115                 44.00    427.37     81.37
  116                  0.00    427.51     82.51
  117                 75.00    427.15     84.15
  118                  0.00    427.25     88.25
  119                  0.00    427.25    104.44
  12                 107.00    425.52     95.18
  121                 40.00    427.69     77.69
  122                  0.00    427.51     80.51
  123                  0.00    427.51     81.51
  125                  0.00    427.67     76.67
  126                  0.00    427.17     79.17
  127                153.00    425.17     81.84
  128                  0.00    428.39     66.39
  129                  0.00    428.37     72.37
  130                  0.00    428.36     87.28
  130B                 0.00    428.37     75.37
  132                  0.00    426.90     93.90
  134                  0.00    428.36    107.36
  135                  0.00    428.36    112.36
  137                  0.00    428.36    119.36
  139                  0.00    428.35     68.35
  14                  56.00    424.66     86.66
  140                  0.00    428.35     77.35
  141                  0.00    428.35     76.35
  142                  0.00    428.35     67.35
  143                 53.00    424.76     83.79
  144                  0.00    428.38     69.38
  146                  0.00    428.31     82.31
  147                  0.00    428.25    107.25
  148                  0.00    428.30     95.30
  149                  0.00    428.10    114.89
  15                 225.00    423.30     88.30
  150                 85.00    427.93    119.86
  151                  0.00    427.93    122.69
  152                  0.00    427.93    117.91
  153                  0.00    427.93    117.93
  154                  0.00    428.37    103.37
  157                  0.00    428.37    125.37
  158A                 0.00    428.37    107.37
  158B                 0.00    428.37    107.37
  16B                  0.00    424.79     90.79
  160                 61.00    428.46     61.46
  162                  0.00    428.35     60.35
  163                 65.00    428.06     54.06
  164                 52.00    428.07     68.41
  165                 52.00    427.68     66.38
  166                 91.00    427.68     66.67
  167                  0.00    427.68     57.04
  169                  0.00    428.01     61.51
  17A                  0.00    423.85     88.85
  170                  0.00    428.55     69.55
  17B                174.00    423.73     88.73
  171                  0.00    428.60     76.60
  172                  0.00    428.60     88.60
  18B                  0.00    423.73     98.73
  19                   0.00    428.52     70.52
  2                    0.00    427.90    101.90
  20                  82.00    428.62     64.62
  2002                 0.00    427.20     77.20
  2003                 0.00    427.20     77.20
  21                   0.00    428.59     65.86
  22                  74.00    428.59     66.99
  222                  0.00    428.54     78.54
  24                   0.00    428.51     84.51
  25                   0.00    428.47     83.47
  26                  90.00    428.03     80.03
  27                   0.00    428.43     78.43
  28                   0.00    428.42     80.42
  29                  56.00    428.39     72.39
  3                   65.00    427.60     87.25
  30                   0.00    428.39     67.39
  3002                 0.00    428.62     42.62
  3004                 0.00    428.62     42.62
  3005                 0.00    428.62     42.62
  3008                 0.00    428.62     43.62
  3012                 0.00    428.62     57.89
  3013                 0.00    428.62     63.69
  3016               131.00    428.64     63.64
  3017                 0.00    428.74     46.74
  3018                 0.00    428.65     51.65
  3019                 0.00    428.62     59.23
  3020                 0.00    428.62     60.51
  3024                 0.00    428.62     63.68
  31                   0.00    428.37     70.58
  3152                 0.00    428.62     62.42
  32                   0.00    428.38     70.38
  34                   0.00    428.37     77.35
  35                   0.00    428.37     91.37
  36                   0.00    428.37    100.37
  39                   0.00    428.37    115.37
  41                   0.00    428.37    121.37
  46                   0.00    428.65     52.65
  47                   0.00    428.01     69.83
  48                   0.00    428.49     84.49
  49                   0.00    428.49     76.49
  5                    0.00    427.44     80.44
  52                   0.00    428.49     77.49
  53                   0.00    428.59     72.59
  54                   0.00    428.39     83.39
  55                   0.00    427.08     97.08
  56                   0.00    426.56     92.56
  58                 127.00    421.97     88.97
  59                 166.00    418.14     89.14
  6                   58.00    426.89     74.89
  60                   0.00    427.60     82.60
  61                   0.00    427.60     88.60
  62                   0.00    426.97     72.97
  64                   0.00    427.68     96.68
  65                  88.00    427.09     87.09
  66                  85.00    427.46     88.46
  67                 107.00    427.33     95.33
  68                   0.00    427.01     88.01
  69                  49.00    426.45     75.45
  7                   59.00    426.96     73.96
  70                   0.00    427.20     87.20
  71                 109.00    424.45     87.45
  72                   0.00    426.97     70.97
  73                   0.00    427.05     72.05
  77                 130.00    422.79     66.79
  78                   0.00    426.97     86.83
  79                   0.00    426.95     73.95
  8                   69.00    426.85     76.85
  80                  91.00    426.56     77.56
  81                   0.00    424.89     65.89
  82                 132.00    423.81     65.81
  85                   0.00    427.20     88.20
  86                   0.00    427.20     90.20
  87                   0.00    426.99     66.99
  88                   0.00    426.96     73.96
  89                  79.00    426.91     59.91
  90                   0.00    426.91     70.91
  91                   0.00    426.91     54.91
  92                   0.00    426.91     66.91
  91B                  0.00    426.91     66.91
  94                   0.00    426.17     87.17
  95                   0.00    425.69     82.69
  97                   0.00    425.37     94.37
  99                 146.00    424.25     74.25
  74                   0.00    427.04     68.33
  1074                 0.00    427.04     69.04
  11A                113.00    425.22     82.22
  1011                 0.00    425.37     82.37
  0                -4083.00    429.00      0.00  Reservoir
   
   
  Link Results:
  ----------------------------------------------
                       Flow  Velocity  Headloss
  Link                 m3/h       m/s    /1000m
  ----------------------------------------------
  TU1                 -0.00      0.00      0.00
  TU10                 0.00      0.00      0.00
  TU100              265.00      0.59      0.67
  TU101              350.00      0.50      0.38
  TU102               88.00      1.57     14.12
  TU103              438.00      0.62      0.57
  TU104              438.00      0.62      0.57
  TU105             1969.00      0.86      0.52
  TU106             1969.00      0.86      0.52
  TU107                0.00      0.00      0.00
  TU108             2034.00      0.89      0.55
  TU109             2472.00      1.08      0.79
  TU11               154.00      0.70      1.45
  TU110             2472.00      1.08      0.79
  TU111              166.00      2.18     21.76
  TU112              293.00      2.14     14.79
  TU113              293.00      1.56      6.79
  TU114              293.00      1.56      6.79
  TU115             2819.00      1.00      0.60
  TU116             2819.00      1.00      0.60
  TU117               -0.00      0.00      0.00
  TU118                0.00      0.00      0.00
  TU119             2819.00      1.00      0.60
  TU12               150.00      1.71     12.77
  TU120             2819.00      1.00      0.60
  TU121                0.00      0.00      0.00
  TU122                0.00      0.00      0.00
  TU123               -0.00      0.00      0.00
  TU124                0.00      0.00      0.00
  TU125               -0.00      0.00      0.00
  TU126               -0.00      0.00      0.00
  TU127               -0.00      0.00      0.00
  TU128                0.00      0.00      0.00
  TU129                0.00      0.00      0.00
  TU13               195.00      1.42      6.97
  TU130               52.00      0.23      0.18
  TU131              143.00      0.62      1.13
  TU132                0.00      0.00      0.00
  TU133              143.00      0.62      1.13
  TU134               -0.00      0.00      0.00
  TU135              260.00      0.57      0.65
  TU136              321.00      0.71      0.95
  TU137              321.00      0.45      0.32
  TU138              321.00      0.45      0.32
  TU139              321.00      0.32      0.13
  TU14               405.00      0.90      1.46
  TU140              321.00      0.32      0.13
  TU141                0.00      0.00      0.00
  TU142              130.00      0.35      0.30
  TU143               -0.00      0.00      0.00
  TU144               -0.00      0.00      0.00
  TU145               -0.00      0.00      0.00
  TU146               -0.00      0.00      0.00
  TU147               -0.00      0.00      0.00
  TU148                0.00      0.00      0.00
  TU149               -0.00      0.00      0.00
  TU15                -0.00      0.00      0.00
  TU150               -0.00      0.00      0.00
  TU151               -0.00      0.00      0.00
  TU152              146.00      1.67     12.15
  TU15301            225.00      0.32      0.17
  TU15302            225.00      0.32      0.17
  TU1074               0.00      0.00      0.00
  TU154              225.00      0.22      0.07
  TU155               63.00      1.06      6.69
  TU156              288.00      0.28      0.11
  TU157              418.00      0.41      0.22
  TU158               58.00      1.03      6.59
  TU159              476.00      0.47      0.27
  TU16              4083.00      0.74      0.23
  TU160               69.00      1.23      9.05
  TU161              545.00      0.54      0.35
  TU162             1424.00      1.03      0.97
  TU163             1365.00      0.99      0.90
  TU164             1365.00      0.99      0.90
  TU166               -0.00      0.00      0.00
  TU167              132.00      1.74     14.25
  TU168              132.00      1.74     14.25
  TU169              132.00      1.11      4.81
  TU17                60.00      1.07      7.01
  TU170              223.00      1.02      2.86
  TU171             1142.00      0.82      0.65
  TU17201            113.00      1.49     10.71
  TU17202              0.00      0.00      0.00
  TU1011A            113.00      1.49     10.70
  TU173              113.00      0.83      2.57
  TU174               -0.00      0.00      0.00
  TU175              113.00      0.52      0.83
  TU176              911.00      0.90      0.90
  TU177             1029.00      1.01      1.13
  TU178              804.00      0.79      0.72
  TU179              399.00      1.13      2.60
  TU18                60.00      0.69      2.40
  TU180              174.00      0.49      0.57
  TU181                0.00      0.00      0.00
  TU182              174.00      0.80      1.82
  TU183                0.00      0.00      0.00
  TU184                0.00      0.00      0.00
  TU185              312.00      0.69      0.90
  TU186              195.00      0.53      0.62
  TU187              260.00      0.57      0.65
  TU188              596.00      0.43      0.20
  TU189              596.00      0.43      0.20
  TU19                 0.00      0.00      0.00
  TU190               -0.00      0.00      0.00
  TU191                0.00      0.00      0.00
  TU192                0.00      0.00      0.00
  TU193                0.00      0.00      0.00
  TU194               -0.00      0.00      0.00
  TU195                0.00      0.00      0.00
  TU196                0.00      0.00      0.00
  TU197               -0.00      0.00      0.00
  TU198                0.00      0.00      0.00
  TU199                0.00      0.00      0.00
  TU2                225.00      2.57     27.06
  TU20                60.00      0.44      0.82
  TU200               -0.00      0.00      0.00
  TU201                0.00      0.00      0.00
  TU203                0.00      0.00      0.00
  TU204              812.00      0.35      0.10
  TU205              943.00      0.41      0.13
  TU21                -0.00      0.00      0.00
  TU22               656.00      0.36      0.12
  TU23               656.00      0.36      0.12
  TU24               730.00      0.40      0.15
  TU25               730.00      0.40      0.15
  TU26               138.00      0.14      0.03
  TU27               138.00      0.14      0.03
  TU28               194.00      0.19      0.05
  TU29               194.00      0.19      0.05
  TU3                  0.00      0.00      0.00
  TU30                 0.00      0.00      0.00
  TU31                -0.00      0.00      0.00
  TU32                75.00      0.86      3.59
  TU33                75.00      0.34      0.40
  TU34               119.00      0.54      0.91
  TU35                 0.00      0.00      0.00
  TU36                 0.00      0.00      0.00
  TU37               119.00      0.34      0.29
  TU38               119.00      0.34      0.29
  TU39               153.00      1.75     13.25
  TU4                225.00      0.32      0.17
  TU40               153.00      1.12      4.47
  TU41               272.00      0.60      0.70
  TU42                65.00      0.45      0.83
  TU43               312.00      0.44      0.31
  TU44               312.00      0.44      0.31
  TU45               312.00      0.44      0.31
  TU46               402.00      0.57      0.49
  TU47                90.00      1.60     14.72
  TU48                 0.00      0.00      0.00
  TU49                 0.00      0.00      0.00
  TU5                225.00      0.32      0.17
  TU50                 0.00      0.00      0.00
  TU51                 0.00      0.00      0.00
  TU52                 0.00      0.00      0.00
  TU53                 0.00      0.00      0.00
  TU54                 0.00      0.00      0.00
  TU55                 0.00      0.00      0.00
  TU56                 0.00      0.00      0.00
  TU57                 0.00      0.00      0.00
  TU58                 0.00      0.00      0.00
  TU59                 0.00      0.00      0.00
  TU6                312.00      0.44      0.31
  TU60                -0.00      0.00      0.00
  TU61                 0.00      0.00      0.00
  TU62                85.00      0.45      0.71
  TU63                 0.00      0.00      0.00
  TU64                85.00      0.45      0.71
  TU65                 0.00      0.00      0.00
  TU66                85.00      0.28      0.23
  TU67                85.00      0.24      0.16
  TU68                85.00      0.24      0.16
  TU69                85.00      0.12      0.03
  TU7                130.00      2.19     25.30
  TU70                85.00      0.12      0.03
  TU71                85.00      0.12      0.03
  TU72                53.00      0.12      0.04
  TU73                53.00      0.12      0.04
  TU74                53.00      0.12      0.04
  TU75                53.00      0.12      0.04
  TU76                53.00      0.12      0.04
  TU77                53.00      0.12      0.04
  TU78                 0.00      0.00      0.00
  TU79                 0.00      0.00      0.00
  TU8                154.00      1.66     11.70
  TU80                 0.00      0.00      0.00
  TU81                 0.00      0.00      0.00
  TU82                53.00      0.94      5.59
  TU83                53.00      0.70      2.69
  TU84                 0.00      0.00      0.00
  TU85                 0.00      0.00      0.00
  TU86                 0.00      0.00      0.00
  TU87                 0.00      0.00      0.00
  TU88                53.00      0.12      0.04
  TU89                 0.00      0.00      0.00
  TU9                  0.00      0.00      0.00
  TU90                 0.00      0.00      0.00
  TU91                -0.00      0.00      0.00
  TU92                 0.00      0.00      0.00
  TU93                 0.00      0.00      0.00
  TU94               109.00      1.24      7.11
  TU95               109.00      0.31      0.25
  TU96                 0.00      0.00      0.00
  TU97                49.00      0.87      4.85
  TU98                49.00      0.56      1.66
  TU99               158.00      0.35      0.26
  TU4000               0.00      0.00      0.00
   
  Analysis ended Fri Dec  1 10:08:58 2023
