  Page 1                                    Fri Dec  1 09:55:38 2023

  ******************************************************************
  *                           E P A N E T                          *
  *                   Hydraulic and Water Quality                  *
  *                   Analysis for Pipe Networks                   *
  *                         Version 2.2                            *
  ******************************************************************
  
  Analysis begun Fri Dec  1 09:55:38 2023

   
  Node Results:
  ----------------------------------------------
                     Demand      Head  Pressure
  Node                 m3/h         m         m
  ----------------------------------------------
  3661                 0.00    428.49     50.35
  482                  0.00    428.28     82.28
  661                  0.00    426.10     96.10
  6610                 0.00    423.66     -1.46
  6611                 0.00    427.84     92.84
  6612                 0.00    426.61     64.24
  6613                 0.00    426.46     71.46
  6615                 0.00    427.81     88.81
  6616                 0.00    427.30     66.30
  6617                 0.00    425.70     82.70
  6618                 0.00    427.84     79.84
  662                  0.00    428.38    100.38
  6620                 0.00    427.21    119.21
  6621                 0.00    427.21     99.21
  6622                 0.00    427.21     90.21
  6623                 0.00    427.21     76.21
  6624                 0.00    427.22     75.22
  6625                 0.00    427.06    115.06
  6626                 0.00    427.06    106.06
  6627                 0.00    424.95    103.95
  6628                 0.00    426.87     87.87
  6629                 0.00    428.32     88.32
  663                  0.00    428.06     87.06
  6630                 0.00    428.35      3.23
  6632                 0.00    428.37     88.37
  6633                 0.00    428.66     66.02
  6634                 0.00    428.69     57.69
  6635                 0.00    428.41     76.41
  6636                 0.00    428.41     72.41
  6637                 0.00    428.28     61.28
  6639                 0.00    425.19     65.19
  664                  0.00    427.99     79.99
  6640                 0.00    424.73     64.73
  6641                 0.00    426.04     67.36
  6642                 0.00    426.01     70.01
  6643                 0.00    427.12     75.12
  6644                 0.00    427.36     75.36
  6645                 0.00    427.45     77.45
  6646                 0.00    427.99     80.97
  6648                 0.00    427.99     81.98
  6649                 0.00    427.84     88.84
  665                  0.00    427.94     82.94
  666                  0.00    428.35     88.35
  6665                 0.00    426.24     61.10
  6666                 0.00    427.84     60.18
  667                  0.00    427.33     75.33
  668                  0.00    426.10     96.10
  669                  0.00    428.29     83.29
  1                    0.00    428.52     98.52
  10                   0.00    427.12     75.12
  100                 76.00    425.99     70.99
  100B                81.00    424.26     66.26
  101                 65.00    426.32     73.32
  103                  0.00    427.81     88.81
  104                  0.00    427.81     88.81
  105                111.00    426.42     71.42
  106                  0.00    426.46     71.46
  107                 86.00    427.45     88.45
  108                  0.00    427.81     92.25
  109                  0.00    427.81     90.81
  11B                143.00    427.92     84.92
  110                  0.00    427.80     81.80
  111                  0.00    427.64     89.66
  112                  0.00    427.72     85.72
  113                  0.00    427.41    104.41
  114                 59.00    426.64     78.64
  115                  0.00    426.15     80.15
  116                  0.00    426.39     81.39
  117                 89.00    425.57     82.57
  118                 68.00    424.86     85.86
  119                  0.00    424.86    102.05
  12                   0.00    427.89     97.55
  121                  0.00    427.06     77.06
  122                 68.00    422.40     75.40
  123                  0.00    425.83     79.83
  125                  0.00    427.02     76.02
  126                 54.00    426.95     78.95
  127                  0.00    426.95     83.62
  128                 66.00    427.25     65.25
  129                  0.00    426.58     70.58
  130                130.00    426.21     85.13
  130B                61.00    426.40     73.40
  132                 59.00    419.33     86.33
  134                  0.00    424.95    103.95
  135                 57.00    422.92    106.92
  137                 57.00    419.20    110.20
  139                  0.00    426.10     66.10
  14                   0.00    427.81     89.81
  140                  0.00    426.10     75.10
  141                  0.00    426.10     74.10
  142                  0.00    426.10     65.10
  143                 64.00    416.31     75.34
  144                 86.00    426.90     67.90
  146                  0.00    427.11     81.11
  147                 65.00    426.76    105.76
  148                 56.00    427.09     94.09
  149                  0.00    427.06    113.85
  15                   0.00    427.84     92.84
  150                  0.00    427.06    118.99
  151                  0.00    427.06    121.82
  152                  0.00    427.06    117.04
  153                  0.00    427.06    117.06
  154                  0.00    427.21    102.21
  157                  0.00    427.21    124.21
  158A                 0.00    427.21    106.21
  158B                 0.00    427.21    106.21
  16B                  0.00    427.84     93.84
  160                  0.00    428.25     61.25
  162                  0.00    428.05     60.05
  163                  0.00    427.84     53.84
  164                 52.00    427.35     67.69
  165                 63.00    426.35     65.05
  166                 80.00    426.35     65.34
  167                 86.00    426.10     55.46
  169                 74.00    427.00     60.50
  17A                  0.00    427.84     92.84
  170                  0.00    428.35     69.35
  17B                  0.00    427.84     92.84
  171                  0.00    428.41     76.41
  172                  0.00    428.41     88.41
  18B                  0.00    427.84    102.84
  19                   0.00    428.66     70.66
  2                    0.00    428.41    102.41
  20                  85.00    428.49     64.49
  2002                 0.00    428.29     78.29
  2003                 0.00    428.29     78.29
  21                  62.00    428.41     65.68
  22                   0.00    428.40     66.80
  222                  0.00    428.25     78.25
  24                   0.00    428.16     84.16
  25                   0.00    428.02     83.02
  26                   0.00    427.84     79.84
  27                   0.00    427.89     77.89
  28                  54.00    427.74     79.74
  29                   0.00    427.37     71.37
  3                   72.00    428.23     87.88
  30                   0.00    427.32     66.32
  3002                 0.00    428.49     42.49
  3004                 0.00    428.49     42.49
  3005                 0.00    428.49     42.49
  3008                 0.00    428.49     43.49
  3012                 0.00    428.49     57.76
  3013                 0.00    428.49     63.56
  3016                 0.00    428.55     63.55
  3017               130.00    428.75     46.75
  3018                71.00    428.22     51.22
  3019                 0.00    428.49     59.10
  3020                 0.00    428.49     60.38
  3024                 0.00    428.49     63.55
  31                   0.00    427.25     69.46
  3152                 0.00    428.49     62.29
  32                   0.00    427.27     69.27
  34                  71.00    427.04     76.02
  35                   0.00    427.21     90.21
  36                   0.00    427.21     99.21
  39                   0.00    427.21    114.21
  41                   0.00    427.21    120.21
  46                 176.00    428.47     52.47
  47                   0.00    427.14     68.96
  48                   0.00    428.28     84.28
  49                   0.00    428.28     76.28
  5                    0.00    428.14     81.14
  52                   0.00    428.28     77.28
  53                 141.00    425.65     69.65
  54                   0.00    428.61     83.61
  55                   0.00    428.48     98.48
  56                  50.00    428.46     94.46
  58                   0.00    428.46     95.46
  59                   0.00    428.46     99.46
  6                    0.00    427.36     75.36
  60                   0.00    428.23     83.23
  61                   0.00    428.23     89.23
  62                   0.00    427.22     73.22
  64                   0.00    428.37     97.37
  65                   0.00    428.37     88.37
  66                   0.00    428.36     89.36
  67                   0.00    428.36     96.36
  68                   0.00    428.35     89.35
  69                   0.00    428.35     77.35
  7                    0.00    428.01     75.01
  70                   0.00    428.19     88.19
  71                   0.00    428.32     91.32
  72                   0.00    427.22     71.22
  73                 182.00    427.07     72.07
  77                 128.00    423.17     67.17
  78                   0.00    427.22     87.08
  79                  60.00    428.01     75.01
  8                   72.00    427.16     77.16
  80                   0.00    427.99     78.99
  81                   0.00    427.99     68.99
  82                   0.00    427.99     69.99
  85                  60.00    426.59     87.59
  86                   0.00    426.87     89.87
  87                   0.00    426.75     66.75
  88                   0.00    426.61     73.61
  89                   0.00    426.30     59.30
  90                   0.00    426.01     70.01
  91                 187.00    424.73     52.73
  92                  62.00    423.61     63.61
  91B                161.00    423.38     63.38
  94                   0.00    427.84     88.84
  95                   0.00    427.61     84.61
  97                   0.00    427.46     96.46
  99                   0.00    426.30     76.30
  74                  84.00    424.45     65.74
  1074                 0.00    427.03     69.03
  11A                 75.00    427.39     84.39
  1011                 0.00    427.46     84.46
  0                -3939.00    429.00      0.00  Reservoir
   
   
  Link Results:
  ----------------------------------------------
                       Flow  Velocity  Headloss
  Link                 m3/h       m/s    /1000m
  ----------------------------------------------
  TU1                 62.00      0.68      2.28
  TU10               111.00      1.20      6.41
  TU100               60.00      0.13      0.05
  TU101               60.00      0.08      0.02
  TU102                0.00      0.00      0.00
  TU103               60.00      0.08      0.02
  TU104               60.00      0.08      0.02
  TU105             1487.00      0.65      0.31
  TU106             1487.00      0.65      0.31
  TU107                0.00      0.00      0.00
  TU108             1559.00      0.68      0.34
  TU109             1619.00      0.71      0.36
  TU11               176.00      0.81      1.85
  TU110             1619.00      0.71      0.36
  TU111                0.00      0.00      0.00
  TU112               -0.00      0.00      0.00
  TU113               50.00      0.27      0.27
  TU114               50.00      0.27      0.27
  TU115             1669.00      0.59      0.23
  TU116             1669.00      0.59      0.23
  TU117              141.00      1.52      9.94
  TU118                0.00      0.00      0.00
  TU119             1669.00      0.59      0.23
  TU12                 0.00      0.00      0.00
  TU120             1810.00      0.64      0.27
  TU121               -0.00      0.00      0.00
  TU122                0.00      0.00      0.00
  TU123               -0.00      0.00      0.00
  TU124                0.00      0.00      0.00
  TU125               -0.00      0.00      0.00
  TU126               -0.00      0.00      0.00
  TU127               -0.00      0.00      0.00
  TU128               86.00      0.37      0.45
  TU129               86.00      0.37      0.45
  TU13                 0.00      0.00      0.00
  TU130              149.00      0.65      1.21
  TU131              229.00      1.00      2.66
  TU132               74.00      0.32      0.34
  TU133              303.00      1.32      4.45
  TU134              161.00      1.74     12.70
  TU135              355.00      0.78      1.15
  TU136              355.00      0.78      1.15
  TU137              355.00      0.50      0.39
  TU138              355.00      0.50      0.39
  TU139              355.00      0.35      0.16
  TU14               176.00      0.39      0.32
  TU140              602.00      0.59      0.42
  TU141                0.00      0.00      0.00
  TU142              128.00      0.35      0.29
  TU143              187.00      0.81      1.84
  TU144               81.00      0.87      3.61
  TU145              223.00      1.54      7.83
  TU146              304.00      1.32      4.47
  TU147              491.00      1.33      3.37
  TU148               -0.00      0.00      0.00
  TU149               76.00      0.53      1.10
  TU15                -0.00      0.00      0.00
  TU150               76.00      0.53      1.10
  TU151              567.00      0.80      0.91
  TU152               -0.00      0.00      0.00
  TU15301            651.00      0.92      1.18
  TU15302            567.00      0.80      0.91
  TU1074              84.00      1.10      6.22
  TU154              833.00      0.82      0.76
  TU155               -0.00      0.00      0.00
  TU156              833.00      0.82      0.76
  TU157              961.00      0.94      0.99
  TU158                0.00      0.00      0.00
  TU159              961.00      0.94      0.99
  TU16              3939.00      0.71      0.22
  TU160               72.00      1.28      9.78
  TU161             1033.00      1.01      1.14
  TU162              454.00      0.33      0.12
  TU163              394.00      0.28      0.09
  TU164              454.00      0.33      0.12
  TU166               -0.00      0.00      0.00
  TU167               -0.00      0.00      0.00
  TU168                0.00      0.00      0.00
  TU169                0.00      0.00      0.00
  TU17                -0.00      0.00      0.00
  TU170                0.00      0.00      0.00
  TU171              394.00      0.28      0.09
  TU17201             75.00      0.99      5.06
  TU17202              0.00      0.00      0.00
  TU1011A             75.00      0.99      5.06
  TU173               75.00      0.55      1.22
  TU174               -0.00      0.00      0.00
  TU175               75.00      0.34      0.40
  TU176              176.00      0.17      0.05
  TU177              319.00      0.31      0.13
  TU178              176.00      0.17      0.05
  TU179                0.00      0.00      0.00
  TU18                 0.00      0.00      0.00
  TU180                0.00      0.00      0.00
  TU181                0.00      0.00      0.00
  TU182                0.00      0.00      0.00
  TU183                0.00      0.00      0.00
  TU184                0.00      0.00      0.00
  TU185              338.00      0.75      1.05
  TU186              355.00      0.96      1.86
  TU187              355.00      0.78      1.15
  TU188             1164.00      0.84      0.67
  TU189             1164.00      0.84      0.67
  TU19                86.00      1.53     13.54
  TU190               -0.00      0.00      0.00
  TU191               -0.00      0.00      0.00
  TU192                0.00      0.00      0.00
  TU193                0.00      0.00      0.00
  TU194               -0.00      0.00      0.00
  TU195                0.00      0.00      0.00
  TU196                0.00      0.00      0.00
  TU197                0.00      0.00      0.00
  TU198                0.00      0.00      0.00
  TU199                0.00      0.00      0.00
  TU2                  0.00      0.00      0.00
  TU20                86.00      0.63      1.56
  TU200               -0.00      0.00      0.00
  TU201                0.00      0.00      0.00
  TU203               71.00      1.19      8.32
  TU204             1397.00      0.61      0.28
  TU205             1397.00      0.61      0.28
  TU21                -0.00      0.00      0.00
  TU22              1250.00      0.69      0.40
  TU23              1250.00      0.69      0.40
  TU24              1250.00      0.69      0.40
  TU25              1312.00      0.73      0.44
  TU26               772.00      0.76      0.66
  TU27               772.00      0.76      0.67
  TU28               772.00      0.76      0.66
  TU29               826.00      0.81      0.75
  TU3                  0.00      0.00      0.00
  TU30                 0.00      0.00      0.00
  TU31                68.00      0.78      3.01
  TU32                89.00      1.02      4.91
  TU33               157.00      0.72      1.51
  TU34               157.00      0.72      1.51
  TU35                68.00      1.21      8.81
  TU36                68.00      0.78      3.01
  TU37               225.00      0.64      0.91
  TU38               284.00      0.81      1.40
  TU39                -0.00      0.00      0.00
  TU4                567.00      0.80      0.91
  TU40                54.00      0.39      0.68
  TU41               338.00      0.75      1.05
  TU42                 0.00      0.00      0.00
  TU43               338.00      0.48      0.36
  TU44               338.00      0.48      0.36
  TU45               338.00      0.48      0.36
  TU46               338.00      0.48      0.36
  TU47                -0.00      0.00      0.00
  TU48                 0.00      0.00      0.00
  TU49                 0.00      0.00      0.00
  TU5                567.00      0.80      0.91
  TU50                 0.00      0.00      0.00
  TU51                 0.00      0.00      0.00
  TU52                 0.00      0.00      0.00
  TU53                 0.00      0.00      0.00
  TU54                 0.00      0.00      0.00
  TU55                 0.00      0.00      0.00
  TU56                -0.00      0.00      0.00
  TU57                 0.00      0.00      0.00
  TU58                71.00      1.26      9.53
  TU59                71.00      0.20      0.11
  TU6                338.00      0.48      0.36
  TU60                 0.00      0.00      0.00
  TU61                 0.00      0.00      0.00
  TU62                -0.00      0.00      0.00
  TU63                 0.00      0.00      0.00
  TU64                 0.00      0.00      0.00
  TU65                65.00      1.34     11.60
  TU66                65.00      0.21      0.14
  TU67               121.00      0.34      0.30
  TU68               121.00      0.34      0.30
  TU69               192.00      0.27      0.13
  TU7                128.00      2.15     24.58
  TU70               192.00      0.27      0.13
  TU71               192.00      0.27      0.13
  TU72               237.00      0.52      0.55
  TU73               367.00      0.81      1.22
  TU74               428.00      0.95      1.61
  TU75               428.00      0.95      1.61
  TU76               514.00      1.14      2.26
  TU77               580.00      1.28      2.82
  TU78                57.00      1.17      9.12
  TU79               114.00      1.50     10.88
  TU8                 65.00      0.70      2.42
  TU80                 0.00      0.00      0.00
  TU81               114.00      0.96      3.68
  TU82                64.00      1.14      7.88
  TU83               123.00      1.62     12.51
  TU84                 0.00      0.00      0.00
  TU85                 0.00      0.00      0.00
  TU86                 0.00      0.00      0.00
  TU87                 0.00      0.00      0.00
  TU88               123.00      0.27      0.17
  TU89                60.00      1.07      7.01
  TU9                  0.00      0.00      0.00
  TU90                 0.00      0.00      0.00
  TU91                60.00      0.69      2.40
  TU92                60.00      0.27      0.27
  TU93                60.00      0.17      0.08
  TU94                 0.00      0.00      0.00
  TU95                60.00      0.17      0.08
  TU96                 0.00      0.00      0.00
  TU97                 0.00      0.00      0.00
  TU98                 0.00      0.00      0.00
  TU99                60.00      0.13      0.05
  TU4000               0.00      0.00      0.00
   
  Analysis ended Fri Dec  1 09:55:38 2023
