  Page 1                                    Fri Dec  1 10:05:11 2023

  ******************************************************************
  *                           E P A N E T                          *
  *                   Hydraulic and Water Quality                  *
  *                   Analysis for Pipe Networks                   *
  *                         Version 2.2                            *
  ******************************************************************
  
  Analysis begun Fri Dec  1 10:05:11 2023

   
  Node Results:
  ----------------------------------------------
                     Demand      Head  Pressure
  Node                 m3/h         m         m
  ----------------------------------------------
  3661                 0.00    428.67     50.53
  482                  0.00    428.64     82.64
  661                  0.00    426.98     96.98
  6610                 0.00    427.18      2.06
  6611                 0.00    425.34     90.34
  6612                 0.00    427.40     65.03
  6613                 0.00    421.70     66.70
  6615                 0.00    428.48     89.48
  6616                 0.00    427.77     66.77
  6617                 0.00    427.59     84.59
  6618                 0.00    428.28     80.28
  662                  0.00    428.16    100.16
  6620                 0.00    427.58    119.58
  6621                 0.00    427.58     99.58
  6622                 0.00    427.58     90.58
  6623                 0.00    427.58     76.58
  6624                 0.00    427.59     75.59
  6625                 0.00    427.06    115.06
  6626                 0.00    427.19    106.19
  6627                 0.00    425.74    104.74
  6628                 0.00    426.03     87.03
  6629                 0.00    427.39     87.39
  663                  0.00    427.76     86.76
  6630                 0.00    427.10      1.98
  6632                 0.00    427.74     87.74
  6633                 0.00    428.66     66.02
  6634                 0.00    428.71     57.71
  6635                 0.00    428.71     76.71
  6636                 0.00    428.71     72.71
  6637                 0.00    428.64     61.64
  6639                 0.00    427.22     67.22
  664                  0.00    427.30     79.30
  6640                 0.00    427.18     67.18
  6641                 0.00    427.25     68.57
  6642                 0.00    427.17     71.17
  6643                 0.00    427.55     75.55
  6644                 0.00    427.59     75.59
  6645                 0.00    427.61     77.61
  6646                 0.00    426.19     79.17
  6648                 0.00    426.33     80.32
  6649                 0.00    427.07     88.07
  665                  0.00    427.07     82.07
  666                  0.00    427.51     87.51
  6665                 0.00    428.33     63.19
  6666                 0.00    428.47     60.81
  667                  0.00    427.58     75.58
  668                  0.00    426.98     96.98
  669                  0.00    427.36     82.36
  1                   94.00    428.41     98.41
  10                   0.00    427.55     75.55
  100                136.00    427.13     72.13
  100B                81.00    426.71     68.71
  101                159.00    421.00     68.00
  103                  0.00    424.55     85.55
  104                 99.00    424.48     85.48
  105                 94.00    421.67     66.67
  106                 56.00    421.62     66.62
  107                  0.00    428.48     89.48
  108                  0.00    428.48     92.92
  109                  0.00    428.48     91.48
  11B                149.00    426.91     83.91
  110                  0.00    428.27     82.27
  111                 55.00    428.22     90.24
  112                  0.00    428.25     86.25
  113                  0.00    428.19    105.19
  114                  0.00    428.06     80.06
  115                  0.00    427.85     81.85
  116                  0.00    427.99     82.99
  117                  0.00    427.59     84.59
  118                 74.00    425.41     86.41
  119                 41.00    422.52     99.71
  12                  83.00    426.32     95.98
  121                  0.00    428.14     78.14
  122                  0.00    427.99     80.99
  123                  0.00    427.99     81.99
  125                  0.00    428.13     77.13
  126                  0.00    428.13     80.13
  127                  0.00    428.13     84.80
  128                  0.00    427.74     65.74
  129                  0.00    427.25     71.25
  130                162.00    427.01     85.93
  130B                72.00    427.13     74.13
  132                  0.00    426.98     93.98
  134                 59.00    425.46    104.46
  135                 60.00    425.11    109.11
  137                  0.00    425.11    116.11
  139                  0.00    426.98     66.98
  14                  89.00    425.50     87.50
  140                  0.00    426.98     75.98
  141                  0.00    426.98     74.98
  142                  0.00    426.98     65.98
  143                  0.00    426.98     86.01
  144                 84.00    427.48     68.48
  146                  0.00    427.34     81.34
  147                 56.00    426.96    105.96
  148                 56.00    427.31     94.31
  149                  0.00    427.06    113.85
  15                 196.00    424.81     89.81
  150                  0.00    426.91    118.84
  151                  0.00    426.60    121.36
  152                 78.00    424.17    114.15
  153                  0.00    425.00    115.00
  154                  0.00    427.58    102.58
  157                  0.00    427.58    124.58
  158A                 0.00    427.58    106.58
  158B                 0.00    427.58    106.58
  16B                  0.00    425.68     91.68
  160                 59.00    428.62     61.62
  162                  0.00    428.55     60.55
  163                 85.00    428.20     54.20
  164                 56.00    428.41     68.75
  165                 59.00    428.33     67.03
  166                  0.00    428.33     67.32
  167                  0.00    428.33     57.69
  169                  0.00    428.40     61.90
  17A                  0.00    425.32     90.32
  170                  0.00    428.68     69.68
  17B                 54.00    425.31     90.31
  171                  0.00    428.71     76.71
  172                  0.00    428.71     88.71
  18B                  0.00    425.31    100.31
  19                   0.00    428.66     70.66
  2                    0.00    428.21    102.21
  20                   0.00    428.67     64.67
  2002                 0.00    427.36     77.36
  2003                 0.00    427.36     77.36
  21                   0.00    428.63     65.90
  22                   0.00    428.63     67.03
  222                  0.00    428.53     78.53
  24                   0.00    428.48     84.48
  25                   0.00    428.38     83.38
  26                   0.00    428.28     80.28
  27                   0.00    428.29     78.29
  28                  53.00    428.16     80.16
  29                   0.00    427.83     71.83
  3                    0.00    427.99     87.64
  30                   0.00    427.78     66.78
  3002                 0.00    428.67     42.67
  3004                 0.00    428.67     42.67
  3005                 0.00    428.67     42.67
  3008                 0.00    428.67     43.67
  3012                 0.00    428.67     57.94
  3013                 0.00    428.67     63.74
  3016                 0.00    428.71     63.71
  3017                 0.00    428.80     46.80
  3018                 0.00    428.74     51.74
  3019                 0.00    428.67     59.28
  3020                 0.00    428.67     60.56
  3024                 0.00    428.67     63.73
  31                   0.00    427.66     69.87
  3152                 0.00    428.67     62.47
  32                   0.00    427.71     69.71
  34                  98.00    427.27     76.25
  35                   0.00    427.58     90.58
  36                   0.00    427.58     99.58
  39                   0.00    427.58    114.58
  41                   0.00    427.58    120.58
  46                   0.00    428.74     52.74
  47                   0.00    428.40     70.22
  48                   0.00    428.64     84.64
  49                   0.00    428.64     76.64
  5                    0.00    427.87     80.87
  52                   0.00    428.64     77.64
  53                   0.00    428.71     72.71
  54                   0.00    428.57     83.57
  55                   0.00    428.41     98.41
  56                   0.00    428.41     94.41
  58                   0.00    428.41     95.41
  59                   0.00    428.41     99.41
  6                   59.00    427.38     75.38
  60                   0.00    427.99     82.99
  61                   0.00    427.99     88.99
  62                 113.00    422.81     68.81
  64                   0.00    427.98     96.98
  65                  96.00    427.29     87.29
  66                  73.00    427.73     88.73
  67                 116.00    427.56     95.56
  68                   0.00    427.10     88.10
  69                  60.00    426.29     75.29
  7                    0.00    427.50     74.50
  70                   0.00    427.27     87.27
  71                  71.00    426.12     89.12
  72                   0.00    427.49     71.49
  73                   0.00    427.54     72.54
  77                   0.00    427.49     71.49
  78                   0.00    427.49     87.35
  79                  60.00    427.49     74.49
  8                    0.00    427.61     77.61
  80                  99.00    427.20     78.20
  81                   0.00    426.33     67.33
  82                  92.00    425.78     67.78
  85                  58.00    425.76     86.76
  86                   0.00    426.03     89.03
  87                   0.00    427.44     67.44
  88                   0.00    427.40     74.40
  89                  87.00    427.30     60.30
  90                   0.00    427.17     71.17
  91                   0.00    427.22     55.22
  92                   0.00    427.18     67.18
  91B                  0.00    427.18     67.18
  94                   0.00    427.07     88.07
  95                   0.00    427.07     84.07
  97                   0.00    427.07     96.07
  99                   0.00    427.30     77.30
  74                   0.00    427.53     68.82
  1074                 0.00    427.53     69.53
  11A                  0.00    427.07     84.07
  1011                 0.00    427.07     84.07
  0                -3481.00    429.00      0.00  Reservoir
   
   
  Link Results:
  ----------------------------------------------
                       Flow  Velocity  Headloss
  Link                 m3/h       m/s    /1000m
  ----------------------------------------------
  TU1                 -0.00      0.00      0.00
  TU10                94.00      1.01      4.73
  TU100              305.00      0.67      0.87
  TU101              378.00      0.53      0.44
  TU102               96.00      1.71     16.58
  TU103              474.00      0.67      0.66
  TU104              474.00      0.67      0.66
  TU105             1706.00      0.74      0.40
  TU106             1706.00      0.74      0.40
  TU107                0.00      0.00      0.00
  TU108             1706.00      0.74      0.40
  TU109             2180.00      0.95      0.63
  TU11               309.00      1.41      5.20
  TU110             2180.00      0.95      0.63
  TU111                0.00      0.00      0.00
  TU112               -0.00      0.00      0.00
  TU113                0.00      0.00      0.00
  TU114                0.00      0.00      0.00
  TU115             2274.00      0.80      0.41
  TU116             2274.00      0.80      0.41
  TU117               -0.00      0.00      0.00
  TU118                0.00      0.00      0.00
  TU119             2274.00      0.80      0.41
  TU12                99.00      1.13      5.96
  TU120             2274.00      0.80      0.41
  TU121               -0.00      0.00      0.00
  TU122                0.00      0.00      0.00
  TU123               -0.00      0.00      0.00
  TU124                0.00      0.00      0.00
  TU125               -0.00      0.00      0.00
  TU126               -0.00      0.00      0.00
  TU127               -0.00      0.00      0.00
  TU128                0.00      0.00      0.00
  TU129                0.00      0.00      0.00
  TU13                99.00      0.72      2.02
  TU130               59.00      0.26      0.23
  TU131               59.00      0.26      0.23
  TU132                0.00      0.00      0.00
  TU133               59.00      0.26      0.23
  TU134               -0.00      0.00      0.00
  TU135              200.00      0.44      0.40
  TU136              259.00      0.57      0.64
  TU137              259.00      0.37      0.22
  TU138              259.00      0.37      0.22
  TU139              259.00      0.25      0.09
  TU14               497.00      1.10      2.12
  TU140              259.00      0.25      0.09
  TU141              113.00      1.90     19.53
  TU142              113.00      0.30      0.23
  TU143               -0.00      0.00      0.00
  TU144               81.00      0.87      3.61
  TU145               -0.00      0.00      0.00
  TU146               81.00      0.35      0.40
  TU147               81.00      0.22      0.13
  TU148                0.00      0.00      0.00
  TU149              136.00      0.94      3.16
  TU15                -0.00      0.00      0.00
  TU150              136.00      0.94      3.16
  TU151              217.00      0.31      0.16
  TU152               -0.00      0.00      0.00
  TU15301            304.00      0.43      0.29
  TU15302            304.00      0.43      0.29
  TU1074               0.00      0.00      0.00
  TU154              304.00      0.30      0.12
  TU155               -0.00      0.00      0.00
  TU156              304.00      0.30      0.12
  TU157              417.00      0.41      0.22
  TU158               59.00      1.05      6.80
  TU159              476.00      0.47      0.27
  TU16              3481.00      0.63      0.17
  TU160                0.00      0.00      0.00
  TU161              476.00      0.47      0.27
  TU162             1230.00      0.89      0.74
  TU163             1170.00      0.84      0.67
  TU164             1230.00      0.89      0.74
  TU166               -0.00      0.00      0.00
  TU167               92.00      1.21      7.34
  TU168               92.00      1.21      7.34
  TU169               92.00      0.77      2.49
  TU17                 0.00      0.00      0.00
  TU170              191.00      0.87      2.15
  TU171              979.00      0.71      0.49
  TU17201             -0.00      0.00      0.00
  TU17202              0.00      0.00      0.00
  TU1011A             -0.00      0.00      0.00
  TU173               -0.00      0.00      0.00
  TU174               -0.00      0.00      0.00
  TU175               -0.00      0.00      0.00
  TU176              830.00      0.82      0.76
  TU177              979.00      0.96      1.03
  TU178              747.00      0.73      0.63
  TU179              250.00      0.71      1.11
  TU18                 0.00      0.00      0.00
  TU180               54.00      0.15      0.07
  TU181                0.00      0.00      0.00
  TU182               54.00      0.25      0.22
  TU183                0.00      0.00      0.00
  TU184                0.00      0.00      0.00
  TU185              115.00      0.25      0.15
  TU186              115.00      0.31      0.24
  TU187              200.00      0.44      0.40
  TU188              948.00      0.68      0.46
  TU189              948.00      0.68      0.46
  TU19                 0.00      0.00      0.00
  TU190               78.00      1.03      5.43
  TU191                0.00      0.00      0.00
  TU192                0.00      0.00      0.00
  TU193                0.00      0.00      0.00
  TU194               -0.00      0.00      0.00
  TU195                0.00      0.00      0.00
  TU196                0.00      0.00      0.00
  TU197                0.00      0.00      0.00
  TU198                0.00      0.00      0.00
  TU199                0.00      0.00      0.00
  TU2                196.00      2.24     20.95
  TU20                 0.00      0.00      0.00
  TU200               -0.00      0.00      0.00
  TU201                0.00      0.00      0.00
  TU203                0.00      0.00      0.00
  TU204              948.00      0.41      0.14
  TU205              948.00      0.41      0.14
  TU21                78.00      0.66      1.84
  TU22               948.00      0.52      0.24
  TU23               948.00      0.52      0.24
  TU24               948.00      0.52      0.24
  TU25               948.00      0.52      0.24
  TU26               725.00      0.71      0.59
  TU27               725.00      0.71      0.59
  TU28               725.00      0.71      0.59
  TU29               778.00      0.76      0.67
  TU3                  0.00      0.00      0.00
  TU30                41.00      0.84      5.01
  TU31               115.00      1.31      7.84
  TU32                 0.00      0.00      0.00
  TU33               115.00      0.53      0.86
  TU34               115.00      0.53      0.86
  TU35                -0.00      0.00      0.00
  TU36                 0.00      0.00      0.00
  TU37               115.00      0.33      0.27
  TU38               115.00      0.33      0.27
  TU39                -0.00      0.00      0.00
  TU4                304.00      0.43      0.29
  TU40                -0.00      0.00      0.00
  TU41               115.00      0.25      0.15
  TU42                85.00      0.59      1.35
  TU43               170.00      0.24      0.10
  TU44               170.00      0.24      0.10
  TU45               170.00      0.24      0.10
  TU46               170.00      0.24      0.10
  TU47                -0.00      0.00      0.00
  TU48                 0.00      0.00      0.00
  TU49                 0.00      0.00      0.00
  TU5                304.00      0.43      0.29
  TU50                 0.00      0.00      0.00
  TU51                 0.00      0.00      0.00
  TU52                 0.00      0.00      0.00
  TU53                 0.00      0.00      0.00
  TU54                 0.00      0.00      0.00
  TU55                 0.00      0.00      0.00
  TU56                 0.00      0.00      0.00
  TU57                 0.00      0.00      0.00
  TU58                98.00      1.74     17.22
  TU59                98.00      0.28      0.20
  TU6                115.00      0.16      0.05
  TU60                78.00      1.61     16.20
  TU61                 0.00      0.00      0.00
  TU62                78.00      0.41      0.61
  TU63                 0.00      0.00      0.00
  TU64                78.00      0.41      0.61
  TU65                56.00      1.15      8.83
  TU66               134.00      0.44      0.52
  TU67               190.00      0.54      0.67
  TU68               190.00      0.54      0.67
  TU69               288.00      0.41      0.27
  TU7                  0.00      0.00      0.00
  TU70               288.00      0.41      0.27
  TU71               288.00      0.41      0.27
  TU72               119.00      0.26      0.16
  TU73               281.00      0.62      0.75
  TU74               353.00      0.78      1.13
  TU75               353.00      0.78      1.13
  TU76               437.00      0.97      1.68
  TU77               437.00      0.97      1.68
  TU78                 0.00      0.00      0.00
  TU79                60.00      0.79      3.37
  TU8                159.00      1.72     12.41
  TU80                59.00      1.22      9.72
  TU81               119.00      1.00      3.98
  TU82                 0.00      0.00      0.00
  TU83                 0.00      0.00      0.00
  TU84                 0.00      0.00      0.00
  TU85                 0.00      0.00      0.00
  TU86                 0.00      0.00      0.00
  TU87                 0.00      0.00      0.00
  TU88                 0.00      0.00      0.00
  TU89                58.00      1.03      6.59
  TU9                 56.00      0.94      5.40
  TU90                 0.00      0.00      0.00
  TU91                58.00      0.66      2.25
  TU92                58.00      0.27      0.25
  TU93                58.00      0.16      0.08
  TU94                71.00      0.81      3.25
  TU95               129.00      0.37      0.33
  TU96                 0.00      0.00      0.00
  TU97                60.00      1.07      7.01
  TU98                60.00      0.69      2.40
  TU99               189.00      0.42      0.36
  TU4000               0.00      0.00      0.00
   
  Analysis ended Fri Dec  1 10:05:11 2023
