  Page 1                                    Fri Dec  1 10:12:05 2023

  ******************************************************************
  *                           E P A N E T                          *
  *                   Hydraulic and Water Quality                  *
  *                   Analysis for Pipe Networks                   *
  *                         Version 2.2                            *
  ******************************************************************
  
  Analysis begun Fri Dec  1 10:12:05 2023

   
  Node Results:
  ----------------------------------------------
                     Demand      Head  Pressure
  Node                 m3/h         m         m
  ----------------------------------------------
  3661                 0.00    428.93     50.79
  482                  0.00    428.62     82.62
  661                  0.00    428.66     98.66
  6610                 0.00    428.00      2.88
  6611                 0.00    428.06     93.06
  6612                 0.00    428.07     65.70
  6613                 0.00    426.32     71.32
  6615                 0.00    428.90     89.90
  6616                 0.00    428.80     67.80
  6617                 0.00    428.86     85.86
  6618                 0.00    428.88     80.88
  662                  0.00    428.75    100.75
  6620                 0.00    428.77    120.77
  6621                 0.00    428.77    100.77
  6622                 0.00    428.77     91.77
  6623                 0.00    428.77     77.77
  6624                 0.00    428.77     76.77
  6625                 0.00    428.45    116.45
  6626                 0.00    428.63    107.63
  6627                 0.00    427.42    106.42
  6628                 0.00    428.75     89.75
  6629                 0.00    428.75     88.75
  663                  0.00    428.56     87.56
  6630                 0.00    428.75      3.63
  6632                 0.00    428.75     88.75
  6633                 0.00    428.90     66.26
  6634                 0.00    428.92     57.92
  6635                 0.00    428.91     76.91
  6636                 0.00    428.91     72.91
  6637                 0.00    428.88     61.88
  6639                 0.00    428.00     68.00
  664                  0.00    428.42     80.42
  6640                 0.00    428.00     68.00
  6641                 0.00    428.00     69.32
  6642                 0.00    428.00     72.00
  6643                 0.00    428.27     76.27
  6644                 0.00    428.35     76.35
  6645                 0.00    428.38     78.38
  6646                 0.00    427.24     80.22
  6648                 0.00    427.41     81.40
  6649                 0.00    428.36     89.36
  665                  0.00    428.36     83.36
  666                  0.00    428.75     88.75
  6665                 0.00    428.85     63.71
  6666                 0.00    428.85     61.19
  667                  0.00    428.35     76.35
  668                  0.00    428.66     98.66
  669                  0.00    428.75     83.75
  1                   54.00    428.83     98.83
  10                  72.00    427.82     75.82
  100                  0.00    428.00     73.00
  100B                 0.00    428.00     70.00
  101                142.00    425.75     72.75
  103                  0.00    427.98     88.98
  104                  0.00    427.98     88.98
  105                  0.00    426.32     71.32
  106                 55.00    426.24     71.24
  107                  0.00    428.90     89.90
  108                  0.00    428.90     93.34
  109                  0.00    428.90     91.90
  11B                101.00    428.32     85.32
  110                  0.00    428.88     82.88
  111                  0.00    428.87     90.89
  112                  0.00    428.87     86.87
  113                  0.00    428.87    105.87
  114                  0.00    428.86     80.86
  115                  0.00    428.86     82.86
  116                  0.00    428.86     83.86
  117                  0.00    428.86     85.86
  118                  0.00    428.86     89.86
  119                  0.00    428.86    106.05
  12                  83.00    428.18     97.84
  121                 44.00    428.86     78.86
  122                  0.00    428.86     81.86
  123                  0.00    428.86     82.86
  125                  0.00    428.86     77.86
  126                  0.00    428.86     80.86
  127                  0.00    428.86     85.53
  128                  0.00    428.79     66.79
  129                  0.00    428.74     72.74
  130                  0.00    428.70     87.62
  130B                 0.00    428.72     75.72
  132                  0.00    428.66     95.66
  134                 59.00    427.14    106.14
  135                 60.00    426.79    110.79
  137                  0.00    426.79    117.79
  139                  0.00    428.66     68.66
  14                 100.00    427.98     89.98
  140                  0.00    428.66     77.66
  141                  0.00    428.66     76.66
  142                  0.00    428.66     67.66
  143                  0.00    428.66     87.69
  144                  0.00    428.77     69.77
  146                  0.00    428.70     82.70
  147                  0.00    428.63    107.63
  148                  0.00    428.69     95.69
  149                  0.00    428.45    115.24
  15                   0.00    428.06     93.06
  150                  0.00    428.23    120.16
  151                 95.00    427.78    122.54
  152                  0.00    427.78    117.76
  153                  0.00    427.78    117.78
  154                  0.00    428.77    103.77
  157                  0.00    428.77    125.77
  158A                 0.00    428.77    107.77
  158B                 0.00    428.77    107.77
  16B                  0.00    428.06     94.06
  160                  0.00    428.88     61.88
  162                  0.00    428.86     60.86
  163                 81.00    428.60     54.60
  164                  0.00    428.85     69.19
  165                  0.00    428.85     67.55
  166                  0.00    428.85     67.84
  167                  0.00    428.85     58.21
  169                  0.00    428.85     62.35
  17A                  0.00    428.06     93.06
  170                  0.00    428.89     69.89
  17B                  0.00    428.06     93.06
  171                  0.00    428.91     76.91
  172                  0.00    428.91     88.91
  18B                  0.00    428.06    103.06
  19                   0.00    428.90     70.90
  2                    0.00    428.76    102.76
  20                   0.00    428.93     64.93
  2002                 0.00    428.75     78.75
  2003                 0.00    428.75     78.75
  21                   0.00    428.92     66.19
  22                   0.00    428.92     67.32
  222                  0.00    428.91     78.91
  24                   0.00    428.90     84.90
  25                   0.00    428.89     83.89
  26                   0.00    428.88     80.88
  27                   0.00    428.88     78.88
  28                   0.00    428.86     80.86
  29                  59.00    428.80     72.80
  3                    0.00    428.67     88.32
  30                   0.00    428.80     67.80
  3002                 0.00    428.93     42.93
  3004                 0.00    428.93     42.93
  3005                 0.00    428.93     42.93
  3008                 0.00    428.93     43.93
  3012                 0.00    428.93     58.20
  3013                 0.00    428.93     64.00
  3016                 0.00    428.93     63.93
  3017                 0.00    428.95     46.95
  3018                 0.00    428.92     51.92
  3019                 0.00    428.93     59.54
  3020                 0.00    428.93     60.82
  3024                 0.00    428.93     63.99
  31                   0.00    428.78     70.99
  3152                 0.00    428.93     62.73
  32                   0.00    428.79     70.79
  34                   0.00    428.77     77.75
  35                   0.00    428.77     91.77
  36                   0.00    428.77    100.77
  39                   0.00    428.77    115.77
  41                   0.00    428.77    121.77
  46                   0.00    428.92     52.92
  47                   0.00    428.85     70.67
  48                   0.00    428.52     84.52
  49                   0.00    427.71     75.71
  5                    0.00    428.61     81.61
  52                  80.00    427.67     76.67
  53                   0.00    428.92     72.92
  54                   0.00    428.87     83.87
  55                   0.00    428.83     98.83
  56                   0.00    428.83     94.83
  58                   0.00    428.83     95.83
  59                   0.00    428.83     99.83
  6                   60.00    428.14     76.14
  60                   0.00    428.67     83.67
  61                   0.00    428.67     89.67
  62                   0.00    428.35     74.35
  64                   0.00    428.75     97.75
  65                   0.00    428.75     88.75
  66                   0.00    428.75     89.75
  67                   0.00    428.75     96.75
  68                   0.00    428.75     89.75
  69                   0.00    428.75     77.75
  7                    0.00    428.48     75.48
  70                   0.00    428.75     88.75
  71                   0.00    428.75     91.75
  72                   0.00    428.35     72.35
  73                   0.00    428.26     73.26
  77                   0.00    428.35     72.35
  78                   0.00    428.35     88.21
  79                  48.00    428.48     75.48
  8                    0.00    428.38     78.38
  80                   0.00    428.39     79.39
  81                   0.00    427.41     68.41
  82                  99.00    426.77     68.77
  85                   0.00    428.75     89.75
  86                   0.00    428.75     91.75
  87                 130.00    428.10     68.10
  88                   0.00    428.07     75.07
  89                 118.00    428.00     61.00
  90                   0.00    428.00     72.00
  91                   0.00    428.00     56.00
  92                   0.00    428.00     68.00
  91B                  0.00    428.00     68.00
  94                   0.00    428.36     89.36
  95                   0.00    428.36     85.36
  97                   0.00    428.36     97.36
  99                 141.00    425.50     75.50
  74                   0.00    428.25     69.54
  1074                 0.00    428.25     70.25
  11A                  0.00    428.36     85.36
  1011                 0.00    428.36     85.36
  0                -1681.00    429.00      0.00  Reservoir
   
   
  Link Results:
  ----------------------------------------------
                       Flow  Velocity  Headloss
  Link                 m3/h       m/s    /1000m
  ----------------------------------------------
  TU1                 -0.00      0.00      0.00
  TU10                 0.00      0.00      0.00
  TU100                0.00      0.00      0.00
  TU101                0.00      0.00      0.00
  TU102               -0.00      0.00      0.00
  TU103                0.00      0.00      0.00
  TU104                0.00      0.00      0.00
  TU105             1149.00      0.50      0.19
  TU106             1149.00      0.50      0.19
  TU107                0.00      0.00      0.00
  TU108             1149.00      0.50      0.19
  TU109             1149.00      0.50      0.19
  TU11               197.00      0.90      2.28
  TU110             1149.00      0.50      0.19
  TU111                0.00      0.00      0.00
  TU112               -0.00      0.00      0.00
  TU113                0.00      0.00      0.00
  TU114                0.00      0.00      0.00
  TU115             1203.00      0.43      0.13
  TU116             1203.00      0.43      0.13
  TU117               -0.00      0.00      0.00
  TU118                0.00      0.00      0.00
  TU119             1203.00      0.43      0.13
  TU12                 0.00      0.00      0.00
  TU120             1203.00      0.43      0.13
  TU121               -0.00      0.00      0.00
  TU122                0.00      0.00      0.00
  TU123               -0.00      0.00      0.00
  TU124               80.00      0.91      4.04
  TU125               80.00      0.58      1.37
  TU126               80.00      0.37      0.44
  TU127               80.00      0.37      0.44
  TU128                0.00      0.00      0.00
  TU129                0.00      0.00      0.00
  TU13                 0.00      0.00      0.00
  TU130               -0.00      0.00      0.00
  TU131               -0.00      0.00      0.00
  TU132                0.00      0.00      0.00
  TU133               -0.00      0.00      0.00
  TU134               -0.00      0.00      0.00
  TU135               81.00      0.18      0.08
  TU136               81.00      0.18      0.08
  TU137              161.00      0.23      0.09
  TU138              161.00      0.23      0.09
  TU139              161.00      0.16      0.04
  TU14               297.00      0.66      0.83
  TU140              161.00      0.16      0.04
  TU141                0.00      0.00      0.00
  TU142                0.00      0.00      0.00
  TU143               -0.00      0.00      0.00
  TU144               -0.00      0.00      0.00
  TU145               -0.00      0.00      0.00
  TU146                0.00      0.00      0.00
  TU147               -0.00      0.00      0.00
  TU148               -0.00      0.00      0.00
  TU149               -0.00      0.00      0.00
  TU15                -0.00      0.00      0.00
  TU150               -0.00      0.00      0.00
  TU151               -0.00      0.00      0.00
  TU152              141.00      1.61     11.40
  TU15301            389.00      0.55      0.46
  TU15302            389.00      0.55      0.46
  TU1074               0.00      0.00      0.00
  TU154              389.00      0.38      0.19
  TU155               72.00      1.21      8.53
  TU156              461.00      0.45      0.26
  TU157              461.00      0.45      0.26
  TU158               60.00      1.07      7.01
  TU159              521.00      0.51      0.32
  TU16              1681.00      0.30      0.05
  TU160                0.00      0.00      0.00
  TU161              521.00      0.51      0.32
  TU162              628.00      0.45      0.22
  TU163              580.00      0.42      0.19
  TU164              628.00      0.45      0.22
  TU166               -0.00      0.00      0.00
  TU167               99.00      1.30      8.40
  TU168               99.00      1.30      8.40
  TU169               99.00      0.83      2.84
  TU17                -0.00      0.00      0.00
  TU170               99.00      0.45      0.65
  TU171              481.00      0.35      0.13
  TU17201             -0.00      0.00      0.00
  TU17202              0.00      0.00      0.00
  TU1011A             -0.00      0.00      0.00
  TU173               -0.00      0.00      0.00
  TU174               -0.00      0.00      0.00
  TU175               -0.00      0.00      0.00
  TU176              380.00      0.37      0.18
  TU177              481.00      0.47      0.28
  TU178              297.00      0.29      0.12
  TU179                0.00      0.00      0.00
  TU18                 0.00      0.00      0.00
  TU180                0.00      0.00      0.00
  TU181                0.00      0.00      0.00
  TU182                0.00      0.00      0.00
  TU183                0.00      0.00      0.00
  TU184                0.00      0.00      0.00
  TU185               44.00      0.10      0.03
  TU186               -0.00      0.00      0.00
  TU187               81.00      0.18      0.08
  TU188              317.00      0.23      0.06
  TU189              317.00      0.23      0.06
  TU19                 0.00      0.00      0.00
  TU190               -0.00      0.00      0.00
  TU191               -0.00      0.00      0.00
  TU192                0.00      0.00      0.00
  TU193                0.00      0.00      0.00
  TU194               -0.00      0.00      0.00
  TU195                0.00      0.00      0.00
  TU196                0.00      0.00      0.00
  TU197               -0.00      0.00      0.00
  TU198                0.00      0.00      0.00
  TU199                0.00      0.00      0.00
  TU2                  0.00      0.00      0.00
  TU20                 0.00      0.00      0.00
  TU200               -0.00      0.00      0.00
  TU201                0.00      0.00      0.00
  TU203                0.00      0.00      0.00
  TU204              317.00      0.14      0.02
  TU205              317.00      0.14      0.02
  TU21                95.00      0.80      2.64
  TU22               317.00      0.18      0.03
  TU23               317.00      0.18      0.03
  TU24               317.00      0.18      0.03
  TU25               317.00      0.18      0.03
  TU26               214.00      0.21      0.06
  TU27               214.00      0.21      0.06
  TU28               273.00      0.27      0.10
  TU29               273.00      0.27      0.10
  TU3                  0.00      0.00      0.00
  TU30                 0.00      0.00      0.00
  TU31                -0.00      0.00      0.00
  TU32                 0.00      0.00      0.00
  TU33                 0.00      0.00      0.00
  TU34                 0.00      0.00      0.00
  TU35                -0.00      0.00      0.00
  TU36                 0.00      0.00      0.00
  TU37                 0.00      0.00      0.00
  TU38                 0.00      0.00      0.00
  TU39                -0.00      0.00      0.00
  TU4                259.00      0.37      0.22
  TU40                -0.00      0.00      0.00
  TU41                -0.00      0.00      0.00
  TU42                81.00      0.56      1.23
  TU43                44.00      0.06      0.01
  TU44                44.00      0.06      0.01
  TU45                44.00      0.06      0.01
  TU46                44.00      0.06      0.01
  TU47                -0.00      0.00      0.00
  TU48                 0.00      0.00      0.00
  TU49                 0.00      0.00      0.00
  TU5                259.00      0.37      0.22
  TU50                 0.00      0.00      0.00
  TU51                 0.00      0.00      0.00
  TU52                 0.00      0.00      0.00
  TU53                 0.00      0.00      0.00
  TU54                 0.00      0.00      0.00
  TU55                 0.00      0.00      0.00
  TU56                -0.00      0.00      0.00
  TU57                 0.00      0.00      0.00
  TU58                 0.00      0.00      0.00
  TU59                 0.00      0.00      0.00
  TU6                 44.00      0.06      0.01
  TU60                -0.00      0.00      0.00
  TU61                -0.00      0.00      0.00
  TU62                95.00      0.50      0.87
  TU63                 0.00      0.00      0.00
  TU64                95.00      0.50      0.87
  TU65                 0.00      0.00      0.00
  TU66                95.00      0.31      0.28
  TU67                95.00      0.27      0.19
  TU68                95.00      0.27      0.19
  TU69                95.00      0.13      0.04
  TU7                  0.00      0.00      0.00
  TU70                95.00      0.13      0.04
  TU71                95.00      0.13      0.04
  TU72               119.00      0.26      0.16
  TU73               119.00      0.26      0.16
  TU74               119.00      0.26      0.16
  TU75               119.00      0.26      0.16
  TU76               119.00      0.26      0.16
  TU77               119.00      0.26      0.16
  TU78                 0.00      0.00      0.00
  TU79                60.00      0.79      3.37
  TU8                142.00      1.53     10.07
  TU80                59.00      1.22      9.71
  TU81               119.00      1.00      3.98
  TU82                 0.00      0.00      0.00
  TU83                 0.00      0.00      0.00
  TU84                 0.00      0.00      0.00
  TU85                 0.00      0.00      0.00
  TU86                 0.00      0.00      0.00
  TU87                 0.00      0.00      0.00
  TU88                 0.00      0.00      0.00
  TU89                 0.00      0.00      0.00
  TU9                 55.00      0.93      5.22
  TU90                 0.00      0.00      0.00
  TU91                -0.00      0.00      0.00
  TU92                -0.00      0.00      0.00
  TU93                 0.00      0.00      0.00
  TU94                 0.00      0.00      0.00
  TU95                 0.00      0.00      0.00
  TU96                 0.00      0.00      0.00
  TU97                 0.00      0.00      0.00
  TU98                 0.00      0.00      0.00
  TU99                 0.00      0.00      0.00
  TU4000               0.00      0.00      0.00
   
  Analysis ended Fri Dec  1 10:12:05 2023
