  Page 1                                    Fri Dec  1 09:54:42 2023

  ******************************************************************
  *                           E P A N E T                          *
  *                   Hydraulic and Water Quality                  *
  *                   Analysis for Pipe Networks                   *
  *                         Version 2.2                            *
  ******************************************************************
  
  Analysis begun Fri Dec  1 09:54:42 2023

   
  Node Results:
  ----------------------------------------------
                     Demand      Head  Pressure
  Node                 m3/h         m         m
  ----------------------------------------------
  3661                 0.00    428.93     50.79
  482                  0.00    428.93     82.93
  661                  0.00    428.73     98.73
  6610                 0.00    428.68      3.56
  6611                 0.00    428.78     93.78
  6612                 0.00    428.68     66.31
  6613                 0.00    427.76     72.76
  6615                 0.00    428.77     89.77
  6616                 0.00    428.76     67.76
  6617                 0.00    428.37     85.37
  6618                 0.00    428.78     80.78
  662                  0.00    428.92    100.92
  6620                 0.00    428.70    120.70
  6621                 0.00    428.70    100.70
  6622                 0.00    428.70     91.70
  6623                 0.00    428.70     77.70
  6624                 0.00    428.71     76.71
  6625                 0.00    428.50    116.50
  6626                 0.00    428.62    107.62
  6627                 0.00    428.51    107.51
  6628                 0.00    428.92     89.92
  6629                 0.00    428.92     88.92
  663                  0.00    428.86     87.86
  6630                 0.00    428.92      3.80
  6632                 0.00    428.92     88.92
  6633                 0.00    428.96     66.32
  6634                 0.00    428.96     57.96
  6635                 0.00    428.95     76.95
  6636                 0.00    428.95     72.95
  6637                 0.00    428.93     61.93
  6639                 0.00    428.68     68.68
  664                  0.00    428.85     80.85
  6640                 0.00    428.68     68.68
  6641                 0.00    428.68     70.00
  6642                 0.00    428.68     72.68
  6643                 0.00    428.70     76.70
  6644                 0.00    428.72     76.72
  6645                 0.00    428.74     78.74
  6646                 0.00    428.85     81.83
  6648                 0.00    428.85     82.84
  6649                 0.00    428.84     89.84
  665                  0.00    428.84     83.84
  666                  0.00    428.92     88.92
  6665                 0.00    428.73     63.59
  6666                 0.00    428.87     61.21
  667                  0.00    428.72     76.72
  668                  0.00    428.73     98.73
  669                  0.00    428.92     83.92
  1                    0.00    428.94     98.94
  10                   0.00    428.70     76.70
  100                  0.00    428.68     73.68
  100B                 0.00    428.68     70.68
  101                  0.00    427.76     74.76
  103                  0.00    428.76     89.76
  104                  0.00    428.76     89.76
  105                 94.00    427.73     72.73
  106                 55.00    427.68     72.68
  107                 42.00    428.67     89.67
  108                  0.00    428.77     93.21
  109                  0.00    428.77     91.77
  11B                  0.00    428.84     85.84
  110                  0.00    428.77     82.77
  111                 57.00    428.72     90.74
  112                  0.00    428.74     86.74
  113                  0.00    428.69    105.69
  114                  0.00    428.56     80.56
  115                  0.00    428.45     82.45
  116                  0.00    428.48     83.48
  117                  0.00    428.37     85.37
  118                 56.00    427.78     88.78
  119                  0.00    427.78    104.97
  12                   0.00    428.81     98.47
  121                  0.00    428.64     78.64
  122                 59.00    425.40     78.40
  123                  0.00    428.05     82.05
  125                  0.00    428.63     77.63
  126                  0.00    428.63     80.63
  127                  0.00    428.63     85.30
  128                  0.00    428.76     66.76
  129                  0.00    428.75     72.75
  130                  0.00    428.74     87.66
  130B                 0.00    428.74     75.74
  132                  0.00    428.73     95.73
  134                  0.00    428.51    107.51
  135                 46.00    428.12    112.12
  137                  0.00    428.12    119.12
  139                  0.00    428.73     68.73
  14                   0.00    428.76     90.76
  140                  0.00    428.73     77.73
  141                  0.00    428.73     76.73
  142                  0.00    428.73     67.73
  143                  0.00    428.73     87.76
  144                  0.00    428.75     69.75
  146                  0.00    428.66     82.66
  147                  0.00    428.62    107.62
  148                  0.00    428.65     95.65
  149                  0.00    428.50    115.29
  15                   0.00    428.78     93.78
  150                  0.00    428.36    120.29
  151                  0.00    428.08    122.84
  152                 74.00    425.87    115.85
  153                  0.00    426.62    116.62
  154                  0.00    428.70    103.70
  157                  0.00    428.70    125.70
  158A                 0.00    428.70    107.70
  158B                 0.00    428.70    107.70
  16B                  0.00    428.78     94.78
  160                  0.00    428.92     61.92
  162                  0.00    428.90     60.90
  163                  0.00    428.87     54.87
  164                  0.00    428.80     69.14
  165                  0.00    428.73     67.43
  166                 40.00    428.73     67.72
  167                  0.00    428.73     58.09
  169                 80.00    428.59     62.09
  17A                  0.00    428.78     93.78
  170                  0.00    428.94     69.94
  17B                  0.00    428.78     93.78
  171                  0.00    428.95     76.95
  172                  0.00    428.95     88.95
  18B                  0.00    428.78    103.78
  19                   0.00    428.96     70.96
  2                    0.00    428.92    102.92
  20                   0.00    428.93     64.93
  2002                 0.00    428.92     78.92
  2003                 0.00    428.92     78.92
  21                   0.00    428.91     66.18
  22                   0.00    428.91     67.31
  222                  0.00    428.88     78.88
  24                   0.00    428.86     84.86
  25                   0.00    428.83     83.83
  26                  78.00    428.52     80.52
  27                   0.00    428.81     78.81
  28                  46.00    428.79     80.79
  29                   0.00    428.76     72.76
  3                    0.00    428.89     88.54
  30                   0.00    428.76     67.76
  3002                 0.00    428.93     42.93
  3004                 0.00    428.93     42.93
  3005                 0.00    428.93     42.93
  3008                 0.00    428.93     43.93
  3012                 0.00    428.93     58.20
  3013                 0.00    428.93     64.00
  3016                 0.00    428.94     63.94
  3017                 0.00    428.97     46.97
  3018                 0.00    428.96     51.96
  3019                 0.00    428.93     59.54
  3020                 0.00    428.93     60.82
  3024                 0.00    428.93     63.99
  31                   0.00    428.72     70.93
  3152                 0.00    428.93     62.73
  32                   0.00    428.74     70.74
  34                  68.00    428.54     77.52
  35                   0.00    428.70     91.70
  36                   0.00    428.70    100.70
  39                   0.00    428.70    115.70
  41                   0.00    428.70    121.70
  46                   0.00    428.96     52.96
  47                   0.00    428.76     70.58
  48                   0.00    428.93     84.93
  49                   0.00    428.93     76.93
  5                    0.00    428.88     81.88
  52                   0.00    428.93     77.93
  53                   0.00    428.96     72.96
  54                   0.00    428.95     83.95
  55                   0.00    428.94     98.94
  56                   0.00    428.94     94.94
  58                   0.00    428.94     95.94
  59                   0.00    428.94     99.94
  6                    0.00    428.72     76.72
  60                   0.00    428.89     83.89
  61                   0.00    428.89     89.89
  62                   0.00    428.41     74.41
  64                   0.00    428.92     97.92
  65                   0.00    428.92     88.92
  66                   0.00    428.92     89.92
  67                   0.00    428.92     96.92
  68                   0.00    428.92     89.92
  69                   0.00    428.92     77.92
  7                    0.00    428.86     75.86
  70                   0.00    428.92     88.92
  71                   0.00    428.92     91.92
  72                 101.00    428.41     72.41
  73                   0.00    428.70     73.70
  77                 123.00    424.64     68.64
  78                   0.00    428.41     88.27
  79                   0.00    428.86     75.86
  8                    0.00    428.74     78.74
  80                   0.00    428.85     79.85
  81                   0.00    428.85     69.85
  82                   0.00    428.85     70.85
  85                   0.00    428.92     89.92
  86                   0.00    428.92     91.92
  87                 115.00    428.68     68.68
  88                   0.00    428.68     75.68
  89                   0.00    428.68     61.68
  90                   0.00    428.68     72.68
  91                   0.00    428.68     56.68
  92                   0.00    428.68     68.68
  91B                  0.00    428.68     68.68
  94                   0.00    428.84     89.84
  95                   0.00    428.84     85.84
  97                   0.00    428.84     97.84
  99                   0.00    428.68     78.68
  74                  86.00    426.00     67.29
  1074                 0.00    428.69     70.69
  11A                  0.00    428.84     85.84
  1011                 0.00    428.84     85.84
  0                -1220.00    429.00      0.00  Reservoir
   
   
  Link Results:
  ----------------------------------------------
                       Flow  Velocity  Headloss
  Link                 m3/h       m/s    /1000m
  ----------------------------------------------
  TU1                 -0.00      0.00      0.00
  TU10                94.00      1.01      4.73
  TU100                0.00      0.00      0.00
  TU101                0.00      0.00      0.00
  TU102                0.00      0.00      0.00
  TU103                0.00      0.00      0.00
  TU104                0.00      0.00      0.00
  TU105              574.00      0.25      0.05
  TU106              574.00      0.25      0.05
  TU107                0.00      0.00      0.00
  TU108              574.00      0.25      0.05
  TU109              574.00      0.25      0.05
  TU11               149.00      0.68      1.37
  TU110              574.00      0.25      0.05
  TU111                0.00      0.00      0.00
  TU112               -0.00      0.00      0.00
  TU113                0.00      0.00      0.00
  TU114                0.00      0.00      0.00
  TU115              574.00      0.20      0.03
  TU116              574.00      0.20      0.03
  TU117               -0.00      0.00      0.00
  TU118                0.00      0.00      0.00
  TU119              574.00      0.20      0.03
  TU12                 0.00      0.00      0.00
  TU120              574.00      0.20      0.03
  TU121                0.00      0.00      0.00
  TU122                0.00      0.00      0.00
  TU123               -0.00      0.00      0.00
  TU124                0.00      0.00      0.00
  TU125               -0.00      0.00      0.00
  TU126               -0.00      0.00      0.00
  TU127               -0.00      0.00      0.00
  TU128                0.00      0.00      0.00
  TU129                0.00      0.00      0.00
  TU13                 0.00      0.00      0.00
  TU130                0.00      0.00      0.00
  TU131               40.00      0.17      0.11
  TU132               80.00      0.35      0.39
  TU133              120.00      0.52      0.82
  TU134               -0.00      0.00      0.00
  TU135              120.00      0.27      0.16
  TU136              120.00      0.27      0.16
  TU137              120.00      0.17      0.05
  TU138              120.00      0.17      0.06
  TU139              120.00      0.12      0.02
  TU14               149.00      0.33      0.24
  TU140              120.00      0.12      0.02
  TU141                0.00      0.00      0.00
  TU142              224.00      0.60      0.80
  TU143               -0.00      0.00      0.00
  TU144               -0.00      0.00      0.00
  TU145               -0.00      0.00      0.00
  TU146               -0.00      0.00      0.00
  TU147               -0.00      0.00      0.00
  TU148               -0.00      0.00      0.00
  TU149               -0.00      0.00      0.00
  TU15                -0.00      0.00      0.00
  TU150               -0.00      0.00      0.00
  TU151               -0.00      0.00      0.00
  TU152               -0.00      0.00      0.00
  TU15301            201.00      0.28      0.14
  TU15302            115.00      0.16      0.05
  TU1074              86.00      1.13      6.49
  TU154              201.00      0.20      0.06
  TU155                0.00      0.00      0.00
  TU156              201.00      0.20      0.06
  TU157              425.00      0.42      0.22
  TU158                0.00      0.00      0.00
  TU159              425.00      0.42      0.22
  TU16              1220.00      0.22      0.03
  TU160                0.00      0.00      0.00
  TU161              425.00      0.42      0.22
  TU162              149.00      0.11      0.02
  TU163              149.00      0.11      0.02
  TU164              149.00      0.11      0.02
  TU166               -0.00      0.00      0.00
  TU167               -0.00      0.00      0.00
  TU168                0.00      0.00      0.00
  TU169                0.00      0.00      0.00
  TU17                -0.00      0.00      0.00
  TU170                0.00      0.00      0.00
  TU171              149.00      0.11      0.02
  TU17201             -0.00      0.00      0.00
  TU17202              0.00      0.00      0.00
  TU1011A             -0.00      0.00      0.00
  TU173               -0.00      0.00      0.00
  TU174               -0.00      0.00      0.00
  TU175               -0.00      0.00      0.00
  TU176              149.00      0.15      0.03
  TU177              149.00      0.15      0.03
  TU178              149.00      0.15      0.03
  TU179                0.00      0.00      0.00
  TU18                 0.00      0.00      0.00
  TU180                0.00      0.00      0.00
  TU181                0.00      0.00      0.00
  TU182                0.00      0.00      0.00
  TU183                0.00      0.00      0.00
  TU184                0.00      0.00      0.00
  TU185              115.00      0.25      0.15
  TU186              120.00      0.32      0.26
  TU187              120.00      0.27      0.16
  TU188              484.00      0.35      0.13
  TU189              484.00      0.35      0.13
  TU19                42.00      0.75      3.67
  TU190               74.00      0.97      4.94
  TU191                0.00      0.00      0.00
  TU192                0.00      0.00      0.00
  TU193                0.00      0.00      0.00
  TU194               -0.00      0.00      0.00
  TU195                0.00      0.00      0.00
  TU196                0.00      0.00      0.00
  TU197               -0.00      0.00      0.00
  TU198                0.00      0.00      0.00
  TU199                0.00      0.00      0.00
  TU2                  0.00      0.00      0.00
  TU20                42.00      0.31      0.43
  TU200               -0.00      0.00      0.00
  TU201                0.00      0.00      0.00
  TU203                0.00      0.00      0.00
  TU204              526.00      0.23      0.05
  TU205              526.00      0.23      0.05
  TU21                74.00      0.62      1.68
  TU22               526.00      0.29      0.08
  TU23               526.00      0.29      0.08
  TU24               526.00      0.29      0.08
  TU25               526.00      0.29      0.08
  TU26               188.00      0.18      0.05
  TU27               188.00      0.18      0.05
  TU28               188.00      0.18      0.05
  TU29               234.00      0.23      0.08
  TU3                  0.00      0.00      0.00
  TU30                 0.00      0.00      0.00
  TU31                56.00      0.64      2.11
  TU32                 0.00      0.00      0.00
  TU33                56.00      0.26      0.23
  TU34                56.00      0.26      0.23
  TU35                59.00      1.05      6.80
  TU36                59.00      0.67      2.32
  TU37               115.00      0.33      0.27
  TU38               115.00      0.33      0.27
  TU39                -0.00      0.00      0.00
  TU4                 -0.00      0.00      0.00
  TU40                -0.00      0.00      0.00
  TU41               115.00      0.25      0.15
  TU42                 0.00      0.00      0.00
  TU43               172.00      0.24      0.10
  TU44               172.00      0.24      0.10
  TU45               172.00      0.24      0.11
  TU46               250.00      0.35      0.21
  TU47                78.00      1.39     11.32
  TU48                 0.00      0.00      0.00
  TU49                 0.00      0.00      0.00
  TU5                  0.00      0.00      0.00
  TU50                 0.00      0.00      0.00
  TU51                 0.00      0.00      0.00
  TU52                 0.00      0.00      0.00
  TU53                 0.00      0.00      0.00
  TU54                 0.00      0.00      0.00
  TU55                 0.00      0.00      0.00
  TU56                 0.00      0.00      0.00
  TU57                 0.00      0.00      0.00
  TU58                68.00      1.21      8.81
  TU59                68.00      0.19      0.11
  TU6                115.00      0.16      0.05
  TU60                74.00      1.53     14.71
  TU61                 0.00      0.00      0.00
  TU62                74.00      0.39      0.55
  TU63                 0.00      0.00      0.00
  TU64                74.00      0.39      0.55
  TU65                 0.00      0.00      0.00
  TU66                74.00      0.24      0.18
  TU67                74.00      0.21      0.12
  TU68                74.00      0.21      0.12
  TU69               142.00      0.20      0.07
  TU7                123.00      2.07     22.84
  TU70               142.00      0.20      0.07
  TU71               142.00      0.20      0.07
  TU72                46.00      0.10      0.03
  TU73                46.00      0.10      0.03
  TU74                46.00      0.10      0.03
  TU75                46.00      0.10      0.03
  TU76                46.00      0.10      0.03
  TU77                46.00      0.10      0.03
  TU78                 0.00      0.00      0.00
  TU79                46.00      0.60      2.08
  TU8                  0.00      0.00      0.00
  TU80                 0.00      0.00      0.00
  TU81                46.00      0.39      0.71
  TU82                 0.00      0.00      0.00
  TU83                 0.00      0.00      0.00
  TU84                 0.00      0.00      0.00
  TU85                 0.00      0.00      0.00
  TU86                 0.00      0.00      0.00
  TU87                 0.00      0.00      0.00
  TU88                 0.00      0.00      0.00
  TU89                 0.00      0.00      0.00
  TU9                 55.00      0.93      5.22
  TU90                 0.00      0.00      0.00
  TU91                -0.00      0.00      0.00
  TU92                 0.00      0.00      0.00
  TU93                 0.00      0.00      0.00
  TU94                 0.00      0.00      0.00
  TU95                 0.00      0.00      0.00
  TU96                 0.00      0.00      0.00
  TU97                 0.00      0.00      0.00
  TU98                 0.00      0.00      0.00
  TU99                 0.00      0.00      0.00
  TU4000               0.00      0.00      0.00
   
  Analysis ended Fri Dec  1 09:54:42 2023
