  Page 1                                    Fri Dec  1 09:58:31 2023

  ******************************************************************
  *                           E P A N E T                          *
  *                   Hydraulic and Water Quality                  *
  *                   Analysis for Pipe Networks                   *
  *                         Version 2.2                            *
  ******************************************************************
  
  Analysis begun Fri Dec  1 09:58:31 2023

   
  Node Results:
  ----------------------------------------------
                     Demand      Head  Pressure
  Node                 m3/h         m         m
  ----------------------------------------------
  3661                 0.00    428.95     50.81
  482                  0.00    428.81     82.81
  661                  0.00    428.81     98.81
  6610                 0.00    428.42      3.30
  6611                 0.00    428.88     93.88
  6612                 0.00    428.88     66.51
  6613                 0.00    428.72     73.72
  6615                 0.00    428.91     89.91
  6616                 0.00    428.81     67.81
  6617                 0.00    428.78     85.78
  6618                 0.00    428.84     80.84
  662                  0.00    428.96    100.96
  6620                 0.00    428.74    120.74
  6621                 0.00    428.74    100.74
  6622                 0.00    428.74     91.74
  6623                 0.00    428.74     77.74
  6624                 0.00    428.75     76.75
  6625                 0.00    428.57    116.57
  6626                 0.00    428.67    107.67
  6627                 0.00    428.81    107.81
  6628                 0.00    428.96     89.96
  6629                 0.00    428.96     88.96
  663                  0.00    428.94     87.94
  6630                 0.00    428.96      3.84
  6632                 0.00    428.96     88.96
  6633                 0.00    428.98     66.34
  6634                 0.00    428.98     57.98
  6635                 0.00    428.98     76.98
  6636                 0.00    428.98     72.98
  6637                 0.00    428.97     61.97
  6639                 0.00    428.79     68.79
  664                  0.00    428.94     80.94
  6640                 0.00    428.72     68.72
  6641                 0.00    428.85     70.17
  6642                 0.00    428.85     72.85
  6643                 0.00    428.90     76.90
  6644                 0.00    428.91     76.91
  6645                 0.00    428.92     78.92
  6646                 0.00    428.94     81.92
  6648                 0.00    428.94     82.93
  6649                 0.00    428.93     89.93
  665                  0.00    428.93     83.93
  666                  0.00    428.96     88.96
  6665                 0.00    428.97     63.83
  6666                 0.00    428.97     61.31
  667                  0.00    428.91     76.91
  668                  0.00    428.81     98.81
  669                  0.00    428.96     83.96
  1                   69.00    428.97     98.97
  10                  70.00    428.47     76.47
  100                  0.00    428.85     73.85
  100B                 0.00    428.72     70.72
  101                  0.00    428.72     75.72
  103                  0.00    428.87     89.87
  104                  0.00    428.87     89.87
  105                  0.00    428.72     73.72
  106                 52.00    428.65     73.65
  107                  0.00    428.91     89.91
  108                  0.00    428.91     93.35
  109                  0.00    428.91     91.91
  11B                  0.00    428.93     85.93
  110                  0.00    428.84     82.84
  111                 57.00    428.81     90.83
  112                  0.00    428.83     86.83
  113                  0.00    428.80    105.80
  114                  0.00    428.78     80.78
  115                  0.00    428.78     82.78
  116                  0.00    428.78     83.78
  117                  0.00    428.78     85.78
  118                  0.00    428.78     89.78
  119                  0.00    428.78    105.97
  12                   0.00    428.91     98.57
  121                  0.00    428.79     78.79
  122                  0.00    428.78     81.78
  123                  0.00    428.78     82.78
  125                  0.00    428.78     77.78
  126                 63.00    428.68     80.68
  127                  0.00    428.68     85.35
  128                 67.00    428.81     66.81
  129                  0.00    428.81     72.81
  130                  0.00    428.81     87.73
  130B                 0.00    428.81     75.81
  132                  0.00    428.81     95.81
  134                  0.00    428.81    107.81
  135                  0.00    428.81    112.81
  137                  0.00    428.81    119.81
  139                  0.00    428.81     68.81
  14                  75.00    428.87     90.87
  140                  0.00    428.81     77.81
  141                  0.00    428.81     76.81
  142                  0.00    428.81     67.81
  143                  0.00    428.81     87.84
  144                  0.00    428.81     69.81
  146                  0.00    428.71     82.71
  147                  0.00    428.67    107.67
  148                  0.00    428.71     95.71
  149                  0.00    428.57    115.36
  15                   0.00    428.88     93.88
  150                 70.00    428.44    120.37
  151                  0.00    428.44    123.20
  152                  0.00    428.44    118.42
  153                  0.00    428.44    118.44
  154                  0.00    428.74    103.74
  157                  0.00    428.74    125.74
  158A                 0.00    428.74    107.74
  158B                 0.00    428.74    107.74
  16B                  0.00    428.88     94.88
  160                  0.00    428.97     61.97
  162                  0.00    428.97     60.97
  163                  0.00    428.97     54.97
  164                  0.00    428.97     69.31
  165                  0.00    428.97     67.67
  166                  0.00    428.97     67.96
  167                  0.00    428.97     58.33
  169                  0.00    428.97     62.47
  17A                  0.00    428.88     93.88
  170                  0.00    428.97     69.97
  17B                  0.00    428.88     93.88
  171                  0.00    428.98     76.98
  172                  0.00    428.98     88.98
  18B                  0.00    428.88    103.88
  19                   0.00    428.98     70.98
  2                    0.00    428.96    102.96
  20                   0.00    428.95     64.95
  2002                 0.00    428.96     78.96
  2003                 0.00    428.96     78.96
  21                   0.00    428.94     66.21
  22                   0.00    428.94     67.34
  222                  0.00    428.92     78.92
  24                   0.00    428.91     84.91
  25                   0.00    428.89     83.89
  26                  91.00    428.50     80.50
  27                   0.00    428.86     78.86
  28                   0.00    428.85     80.85
  29                   0.00    428.81     72.81
  3                    0.00    428.95     88.60
  30                   0.00    428.81     67.81
  3002                 0.00    428.95     42.95
  3004                 0.00    428.95     42.95
  3005                 0.00    428.95     42.95
  3008                 0.00    428.95     43.95
  3012                 0.00    428.95     58.22
  3013                 0.00    428.95     64.02
  3016                 0.00    428.96     63.96
  3017                 0.00    428.98     46.98
  3018                 0.00    428.98     51.98
  3019                 0.00    428.95     59.56
  3020                 0.00    428.95     60.84
  3024                 0.00    428.95     64.01
  31                   0.00    428.77     70.98
  3152                 0.00    428.95     62.75
  32                   0.00    428.79     70.79
  34                  79.00    428.53     77.51
  35                   0.00    428.74     91.74
  36                   0.00    428.74    100.74
  39                   0.00    428.74    115.74
  41                   0.00    428.74    121.74
  46                   0.00    428.98     52.98
  47                   0.00    428.97     70.79
  48                   0.00    428.74     84.74
  49                  63.00    428.21     76.21
  5                    0.00    428.95     81.95
  52                   0.00    428.21     77.21
  53                   0.00    428.98     72.98
  54                   0.00    428.98     83.98
  55                   0.00    428.97     98.97
  56                   0.00    428.97     94.97
  58                   0.00    428.97     95.97
  59                   0.00    428.97     99.97
  6                    0.00    428.91     76.91
  60                   0.00    428.95     83.95
  61                   0.00    428.95     89.95
  62                   0.00    428.91     74.91
  64                   0.00    428.96     97.96
  65                   0.00    428.96     88.96
  66                   0.00    428.96     89.96
  67                   0.00    428.96     96.96
  68                   0.00    428.96     89.96
  69                   0.00    428.96     77.96
  7                    0.00    428.94     75.94
  70                   0.00    428.96     88.96
  71                   0.00    428.96     91.96
  72                   0.00    428.91     72.91
  73                   0.00    428.90     73.90
  77                   0.00    428.91     72.91
  78                   0.00    428.91     88.77
  79                   0.00    428.94     75.94
  8                    0.00    428.92     78.92
  80                   0.00    428.94     79.94
  81                   0.00    428.94     69.94
  82                   0.00    428.94     70.94
  85                   0.00    428.96     89.96
  86                   0.00    428.96     91.96
  87                   0.00    428.88     68.88
  88                   0.00    428.88     75.88
  89                   0.00    428.86     61.86
  90                   0.00    428.85     72.85
  91                   0.00    428.79     56.79
  92                   0.00    428.42     68.42
  91B                111.00    428.28     68.28
  94                   0.00    428.93     89.93
  95                   0.00    428.93     85.93
  97                   0.00    428.93     97.93
  99                   0.00    428.86     78.86
  74                   0.00    428.90     70.19
  1074                 0.00    428.90     70.90
  11A                  0.00    428.93     85.93
  1011                 0.00    428.93     85.93
  0                 -867.00    429.00      0.00  Reservoir
   
   
  Link Results:
  ----------------------------------------------
                       Flow  Velocity  Headloss
  Link                 m3/h       m/s    /1000m
  ----------------------------------------------
  TU1                 -0.00      0.00      0.00
  TU10                 0.00      0.00      0.00
  TU100                0.00      0.00      0.00
  TU101                0.00      0.00      0.00
  TU102                0.00      0.00      0.00
  TU103                0.00      0.00      0.00
  TU104                0.00      0.00      0.00
  TU105              308.00      0.13      0.02
  TU106              308.00      0.13      0.02
  TU107                0.00      0.00      0.00
  TU108              308.00      0.13      0.02
  TU109              308.00      0.13      0.02
  TU11                52.00      0.24      0.21
  TU110              308.00      0.13      0.02
  TU111                0.00      0.00      0.00
  TU112               -0.00      0.00      0.00
  TU113                0.00      0.00      0.00
  TU114                0.00      0.00      0.00
  TU115              377.00      0.13      0.02
  TU116              377.00      0.13      0.02
  TU117               -0.00      0.00      0.00
  TU118                0.00      0.00      0.00
  TU119              377.00      0.13      0.02
  TU12                 0.00      0.00      0.00
  TU120              377.00      0.13      0.02
  TU121                0.00      0.00      0.00
  TU122                0.00      0.00      0.00
  TU123               -0.00      0.00      0.00
  TU124                0.00      0.00      0.00
  TU125               63.00      0.46      0.89
  TU126               63.00      0.29      0.29
  TU127               63.00      0.29      0.29
  TU128                0.00      0.00      0.00
  TU129                0.00      0.00      0.00
  TU13                 0.00      0.00      0.00
  TU130               -0.00      0.00      0.00
  TU131               -0.00      0.00      0.00
  TU132                0.00      0.00      0.00
  TU133               -0.00      0.00      0.00
  TU134              111.00      1.20      6.41
  TU135               -0.00      0.00      0.00
  TU136                0.00      0.00      0.00
  TU137               63.00      0.09      0.02
  TU138               63.00      0.09      0.02
  TU139               63.00      0.06      0.01
  TU14               127.00      0.28      0.18
  TU140               63.00      0.06      0.01
  TU141                0.00      0.00      0.00
  TU142                0.00      0.00      0.00
  TU143               -0.00      0.00      0.00
  TU144               -0.00      0.00      0.00
  TU145              111.00      0.77      2.18
  TU146              111.00      0.48      0.71
  TU147              111.00      0.30      0.23
  TU148               -0.00      0.00      0.00
  TU149               -0.00      0.00      0.00
  TU15                -0.00      0.00      0.00
  TU150               -0.00      0.00      0.00
  TU151              111.00      0.16      0.05
  TU152               -0.00      0.00      0.00
  TU15301            111.00      0.16      0.05
  TU15302            111.00      0.16      0.05
  TU1074               0.00      0.00      0.00
  TU154              111.00      0.11      0.02
  TU155               70.00      1.18      8.11
  TU156              181.00      0.18      0.05
  TU157              181.00      0.18      0.05
  TU158                0.00      0.00      0.00
  TU159              181.00      0.18      0.05
  TU16               867.00      0.16      0.01
  TU160                0.00      0.00      0.00
  TU161              181.00      0.18      0.05
  TU162              127.00      0.09      0.01
  TU163              127.00      0.09      0.01
  TU164              127.00      0.09      0.01
  TU166               -0.00      0.00      0.00
  TU167               -0.00      0.00      0.00
  TU168                0.00      0.00      0.00
  TU169                0.00      0.00      0.00
  TU17                -0.00      0.00      0.00
  TU170                0.00      0.00      0.00
  TU171              127.00      0.09      0.01
  TU17201              0.00      0.00      0.00
  TU17202              0.00      0.00      0.00
  TU1011A             -0.00      0.00      0.00
  TU173               -0.00      0.00      0.00
  TU174               -0.00      0.00      0.00
  TU175               -0.00      0.00      0.00
  TU176              127.00      0.12      0.03
  TU177              127.00      0.12      0.03
  TU178              127.00      0.12      0.03
  TU179                0.00      0.00      0.00
  TU18                 0.00      0.00      0.00
  TU180                0.00      0.00      0.00
  TU181                0.00      0.00      0.00
  TU182                0.00      0.00      0.00
  TU183                0.00      0.00      0.00
  TU184                0.00      0.00      0.00
  TU185               63.00      0.14      0.05
  TU186               -0.00      0.00      0.00
  TU187               -0.00      0.00      0.00
  TU188              427.00      0.31      0.11
  TU189              427.00      0.31      0.11
  TU19                 0.00      0.00      0.00
  TU190               -0.00      0.00      0.00
  TU191               -0.00      0.00      0.00
  TU192                0.00      0.00      0.00
  TU193                0.00      0.00      0.00
  TU194               -0.00      0.00      0.00
  TU195                0.00      0.00      0.00
  TU196                0.00      0.00      0.00
  TU197               -0.00      0.00      0.00
  TU198                0.00      0.00      0.00
  TU199                0.00      0.00      0.00
  TU2                  0.00      0.00      0.00
  TU20                 0.00      0.00      0.00
  TU200               -0.00      0.00      0.00
  TU201                0.00      0.00      0.00
  TU203                0.00      0.00      0.00
  TU204              427.00      0.19      0.03
  TU205              427.00      0.19      0.03
  TU21                -0.00      0.00      0.00
  TU22               427.00      0.24      0.06
  TU23               427.00      0.24      0.06
  TU24               427.00      0.24      0.06
  TU25               427.00      0.24      0.06
  TU26               216.00      0.21      0.07
  TU27               216.00      0.21      0.07
  TU28               216.00      0.21      0.07
  TU29               216.00      0.21      0.07
  TU3                  0.00      0.00      0.00
  TU30                 0.00      0.00      0.00
  TU31                -0.00      0.00      0.00
  TU32                 0.00      0.00      0.00
  TU33                 0.00      0.00      0.00
  TU34                 0.00      0.00      0.00
  TU35                 0.00      0.00      0.00
  TU36                 0.00      0.00      0.00
  TU37                 0.00      0.00      0.00
  TU38                 0.00      0.00      0.00
  TU39                -0.00      0.00      0.00
  TU4                111.00      0.16      0.05
  TU40                63.00      0.46      0.89
  TU41                63.00      0.14      0.05
  TU42                 0.00      0.00      0.00
  TU43               120.00      0.17      0.05
  TU44               120.00      0.17      0.05
  TU45               120.00      0.17      0.05
  TU46               211.00      0.30      0.15
  TU47                91.00      1.62     15.02
  TU48                 0.00      0.00      0.00
  TU49                 0.00      0.00      0.00
  TU5                111.00      0.16      0.05
  TU50                 0.00      0.00      0.00
  TU51                 0.00      0.00      0.00
  TU52                 0.00      0.00      0.00
  TU53                 0.00      0.00      0.00
  TU54                 0.00      0.00      0.00
  TU55                 0.00      0.00      0.00
  TU56                 0.00      0.00      0.00
  TU57                 0.00      0.00      0.00
  TU58                79.00      1.41     11.59
  TU59                79.00      0.22      0.14
  TU6                 63.00      0.09      0.02
  TU60                 0.00      0.00      0.00
  TU61                 0.00      0.00      0.00
  TU62                70.00      0.37      0.50
  TU63                 0.00      0.00      0.00
  TU64                70.00      0.37      0.50
  TU65                 0.00      0.00      0.00
  TU66                70.00      0.23      0.16
  TU67                70.00      0.20      0.11
  TU68                70.00      0.20      0.11
  TU69               149.00      0.21      0.08
  TU7                  0.00      0.00      0.00
  TU70               149.00      0.21      0.08
  TU71               149.00      0.21      0.08
  TU72                 0.00      0.00      0.00
  TU73                 0.00      0.00      0.00
  TU74                 0.00      0.00      0.00
  TU75                 0.00      0.00      0.00
  TU76                 0.00      0.00      0.00
  TU77                67.00      0.15      0.06
  TU78                 0.00      0.00      0.00
  TU79                 0.00      0.00      0.00
  TU8                 -0.00      0.00      0.00
  TU80                 0.00      0.00      0.00
  TU81                -0.00      0.00      0.00
  TU82                -0.00      0.00      0.00
  TU83                 0.00      0.00      0.00
  TU84                 0.00      0.00      0.00
  TU85                 0.00      0.00      0.00
  TU86                 0.00      0.00      0.00
  TU87                 0.00      0.00      0.00
  TU88                 0.00      0.00      0.00
  TU89                 0.00      0.00      0.00
  TU9                 52.00      0.87      4.72
  TU90                 0.00      0.00      0.00
  TU91                -0.00      0.00      0.00
  TU92                 0.00      0.00      0.00
  TU93                 0.00      0.00      0.00
  TU94                 0.00      0.00      0.00
  TU95                 0.00      0.00      0.00
  TU96                 0.00      0.00      0.00
  TU97                 0.00      0.00      0.00
  TU98                 0.00      0.00      0.00
  TU99                 0.00      0.00      0.00
  TU4000               0.00      0.00      0.00
   
  Analysis ended Fri Dec  1 09:58:31 2023
