  Page 1                                    Fri Dec  1 10:04:22 2023

  ******************************************************************
  *                           E P A N E T                          *
  *                   Hydraulic and Water Quality                  *
  *                   Analysis for Pipe Networks                   *
  *                         Version 2.2                            *
  ******************************************************************
  
  Analysis begun Fri Dec  1 10:04:22 2023

   
  Node Results:
  ----------------------------------------------
                     Demand      Head  Pressure
  Node                 m3/h         m         m
  ----------------------------------------------
  3661                 0.00    427.58     49.44
  482                  0.00    426.60     80.60
  661                  0.00    422.77     92.77
  6610                 0.00    421.70     -3.42
  6611                 0.00    420.91     85.91
  6612                 0.00    422.98     60.61
  6613                 0.00    420.47     65.47
  6615                 0.00    425.89     86.89
  6616                 0.00    424.70     63.70
  6617                 0.00    422.78     79.78
  6618                 0.00    425.90     77.90
  662                  0.00    426.56     98.56
  6620                 0.00    423.23    115.23
  6621                 0.00    423.90     95.90
  6622                 0.00    424.05     87.05
  6623                 0.00    424.20     73.20
  6624                 0.00    424.26     72.26
  6625                 0.00    422.87    110.87
  6626                 0.00    423.34    102.34
  6627                 0.00    420.38     99.38
  6628                 0.00    422.31     83.31
  6629                 0.00    424.79     84.79
  663                  0.00    425.50     84.50
  6630                 0.00    424.99     -0.13
  6632                 0.00    425.94     85.94
  6633                 0.00    427.88     65.24
  6634                 0.00    428.02     57.02
  6635                 0.00    427.84     75.84
  6636                 0.00    427.84     71.84
  6637                 0.00    427.50     60.50
  6639                 0.00    421.92     61.92
  664                  0.00    424.91     76.91
  6640                 0.00    421.80     61.80
  6641                 0.00    422.30     63.62
  6642                 0.00    422.18     66.18
  6643                 0.00    423.78     71.78
  6644                 0.00    424.14     72.14
  6645                 0.00    424.32     74.32
  6646                 0.00    424.91     77.89
  6648                 0.00    424.91     78.90
  6649                 0.00    424.14     85.14
  665                  0.00    424.50     79.50
  666                  0.00    425.39     85.39
  6665                 0.00    425.57     60.43
  6666                 0.00    426.98     59.32
  667                  0.00    424.09     72.09
  668                  0.00    422.76     92.76
  669                  0.00    424.54     79.54
  1                   75.00    427.20     97.20
  10                  65.00    423.40     71.40
  100                167.00    422.12     67.12
  100B                86.00    421.28     63.28
  101                 94.00    420.20     67.20
  103                 46.00    418.81     79.81
  104                153.00    418.66     79.66
  105                108.00    420.43     65.43
  106                  0.00    420.47     65.47
  107                 78.00    425.58     86.58
  108                 63.00    424.93     89.37
  109                  0.00    425.67     88.67
  11B                114.00    424.27     81.27
  110                 65.00    425.80     79.80
  111                 53.00    425.48     87.50
  112                  0.00    425.65     83.65
  113                  0.00    425.13    102.13
  114                 58.00    424.00     76.00
  115                 54.00    423.23     77.23
  116                  0.00    423.63     78.63
  117                 89.00    422.65     79.65
  118                 67.00    421.96     82.96
  119                  0.00    421.96     99.15
  12                 138.00    423.31     92.97
  121                 43.00    424.57     74.57
  122                 69.00    419.53     72.53
  123                  0.00    423.05     77.05
  125                  0.00    424.52     73.52
  126                 54.00    424.45     76.45
  127                  0.00    424.45     81.12
  128                 68.00    424.62     62.62
  129                  0.00    423.59     67.59
  130                131.00    422.99     81.91
  130B                62.00    423.31     70.31
  132                 60.00    416.49     83.49
  134                 62.00    420.07     99.07
  135                 50.00    418.54    102.54
  137                 58.00    414.70    105.70
  139                 67.00    422.31     62.31
  14                   0.00    422.21     84.21
  140                  0.00    422.55     71.55
  141                  0.00    422.54     70.54
  142                  0.00    422.31     61.31
  143                 58.00    413.96     72.99
  144                 88.00    424.10     65.10
  146                  0.00    423.73     77.73
  147                 76.00    422.94    101.94
  148                 52.00    423.65     90.65
  149                  0.00    422.87    109.66
  15                 172.00    420.50     85.50
  150                 86.00    422.32    114.25
  151                  0.00    422.04    116.80
  152                 73.00    419.89    109.87
  153                  0.00    420.62    110.62
  154                  0.00    423.83     98.83
  157                  0.00    423.23    120.23
  158A                66.00    413.80     92.80
  158B                66.00    413.78     92.78
  16B                  0.00    422.34     88.34
  160                 65.00    427.45     60.45
  162                  0.00    427.22     59.22
  163                 88.00    426.69     52.69
  164                 59.00    426.64     66.98
  165                 63.00    425.66     64.36
  166                 93.00    425.67     64.66
  167                 80.00    425.45     54.81
  169                  0.00    426.50     60.00
  17A                  0.00    420.42     85.42
  170                  0.00    427.69     68.69
  17B                174.00    419.93     84.93
  171                  0.00    427.84     75.84
  172                  0.00    427.84     87.84
  18B                195.00    415.31     90.31
  19                   0.00    427.88     69.88
  2                    0.00    426.70    100.70
  20                  83.00    427.58     63.58
  2002                 0.00    424.54     74.54
  2003                 0.00    424.54     74.54
  21                  64.00    427.37     64.64
  22                  73.00    427.36     65.76
  222                  0.00    426.97     76.97
  24                   0.00    426.73     82.73
  25                   0.00    426.39     81.39
  26                  89.00    425.56     77.56
  27                   0.00    426.05     76.05
  28                  55.00    425.71     77.71
  29                  57.00    424.83     68.83
  3                   70.00    426.10     85.75
  30                   0.00    424.73     63.73
  3002                 0.00    427.58     41.58
  3004                 0.00    427.58     41.58
  3005                 0.00    427.58     41.58
  3008                 0.00    427.58     42.58
  3012                 0.00    427.58     56.85
  3013                 0.00    427.58     62.65
  3016               132.00    427.74     62.74
  3017                 0.00    428.29     46.29
  3018                 0.00    428.00     51.00
  3019                 0.00    427.58     58.19
  3020                 0.00    427.58     59.47
  3024                 0.00    427.58     62.64
  31                   0.00    424.41     66.62
  3152                 0.00    427.58     61.38
  32                   0.00    424.54     66.54
  34                  52.00    424.11     73.09
  35                   0.00    424.05     87.05
  36                   0.00    423.90     95.90
  39                   0.00    423.61    110.61
  41                   0.00    423.02    116.02
  46                   0.00    428.00     52.00
  47                   0.00    426.50     68.32
  48                   0.00    426.22     82.22
  49                  78.00    423.32     71.32
  5                    0.00    425.79     78.79
  52                  83.00    423.29     72.29
  53                   0.00    428.02     72.02
  54                   0.00    427.63     82.63
  55                   0.00    426.04     96.04
  56                  50.00    425.48     91.48
  58                  94.00    421.93     88.93
  59                 161.00    418.31     89.31
  6                   61.00    423.92     71.92
  60                   0.00    426.10     81.10
  61                   0.00    426.10     87.10
  62                 109.00    419.13     65.13
  64                  57.00    426.28     95.28
  65                   0.00    425.94     85.94
  66                  86.00    425.93     86.93
  67                 116.00    425.55     93.55
  68                   0.00    424.99     85.99
  69                  59.00    424.20     73.20
  7                   62.00    425.16     72.16
  70                 152.00    423.59     83.59
  71                  91.00    422.80     85.80
  72                  94.00    423.52     67.52
  73                 163.00    423.71     68.71
  77                 111.00    420.40     64.40
  78                   0.00    423.52     83.38
  79                   0.00    425.16     72.16
  8                   70.00    424.05     74.05
  80                   0.00    424.91     75.91
  81                   0.00    424.91     65.91
  82                   0.00    424.91     66.91
  85                  59.00    422.04     83.04
  86                   0.00    422.31     85.31
  87                   0.00    423.20     63.20
  88                   0.00    422.98     69.98
  89                  97.00    422.50     55.50
  90                   0.00    422.18     66.18
  91                 169.00    421.54     49.54
  92                  60.00    421.65     61.65
  91B                  0.00    421.70     61.70
  94                   0.00    424.14     85.14
  95                   0.00    423.36     80.36
  97                   0.00    422.83     91.83
  99                 151.00    419.66     69.66
  74                  76.00    421.50     62.79
  1074                 0.00    423.65     65.65
  11A                148.00    422.58     79.58
  1011                 0.00    422.83     79.83
  0                -6983.00    429.00      0.00  Reservoir
   
   
  Link Results:
  ----------------------------------------------
                       Flow  Velocity  Headloss
  Link                 m3/h       m/s    /1000m
  ----------------------------------------------
  TU1                 60.00      0.65      2.15
  TU10               108.00      1.17      6.10
  TU100              477.00      1.05      1.97
  TU101              563.00      0.80      0.90
  TU102                0.00      0.00      0.00
  TU103              563.00      0.80      0.90
  TU104              620.00      0.88      1.08
  TU105             2883.00      1.26      1.05
  TU106             2883.00      1.26      1.05
  TU107                0.00      0.00      0.00
  TU108             2953.00      1.29      1.10
  TU109             3573.00      1.56      1.56
  TU11               202.00      0.92      2.39
  TU110             3573.00      1.56      1.56
  TU111              161.00      2.12     20.56
  TU112              255.00      1.86     11.44
  TU113              305.00      1.62      7.31
  TU114              305.00      1.62      7.31
  TU115             3953.00      1.40      1.13
  TU116             3953.00      1.40      1.13
  TU117               -0.00      0.00      0.00
  TU118                0.00      0.00      0.00
  TU119             3953.00      1.40      1.13
  TU12               153.00      1.75     13.25
  TU120             3953.00      1.40      1.13
  TU121               -0.00      0.00      0.00
  TU122                0.00      0.00      0.00
  TU123               -0.00      0.00      0.00
  TU124               83.00      0.95      4.32
  TU125              161.00      1.18      4.91
  TU126              161.00      0.74      1.58
  TU127              161.00      0.74      1.58
  TU128               80.00      0.35      0.39
  TU129               80.00      0.35      0.39
  TU13               199.00      1.45      7.24
  TU130              143.00      0.62      1.13
  TU131              236.00      1.03      2.81
  TU132                0.00      0.00      0.00
  TU133              236.00      1.03      2.81
  TU134               -0.00      0.00      0.00
  TU135              383.00      0.85      1.32
  TU136              448.00      0.99      1.75
  TU137              609.00      0.86      1.04
  TU138              609.00      0.86      1.04
  TU139              609.00      0.60      0.43
  TU14               401.00      0.89      1.43
  TU140              609.00      0.60      0.43
  TU141              109.00      1.83     18.27
  TU142              314.00      0.85      1.48
  TU143              169.00      0.74      1.53
  TU144               86.00      0.93      4.02
  TU145               60.00      0.42      0.72
  TU146              146.00      0.64      1.17
  TU147              315.00      0.85      1.49
  TU148               -0.00      0.00      0.00
  TU149              167.00      1.16      4.60
  TU15                -0.00      0.00      0.00
  TU150              167.00      1.16      4.60
  TU151              482.00      0.68      0.68
  TU152              151.00      1.72     12.93
  TU15301            806.00      1.14      1.75
  TU15302            730.00      1.03      1.45
  TU1074              76.00      1.00      5.18
  TU154              969.00      0.95      1.01
  TU155               65.00      1.09      7.08
  TU156             1034.00      1.02      1.14
  TU157             1348.00      1.32      1.86
  TU158               61.00      1.09      7.22
  TU159             1409.00      1.38      2.01
  TU16              6983.00      1.26      0.63
  TU160               70.00      1.25      9.29
  TU161             1479.00      1.45      2.20
  TU162             1404.00      1.01      0.94
  TU163             1342.00      0.97      0.87
  TU164             1342.00      0.97      0.87
  TU166               -0.00      0.00      0.00
  TU167               -0.00      0.00      0.00
  TU168                0.00      0.00      0.00
  TU169                0.00      0.00      0.00
  TU17                63.00      1.12      7.66
  TU170                0.00      0.00      0.00
  TU171             1342.00      0.97      0.87
  TU17201            148.00      1.95     17.60
  TU17202              0.00      0.00      0.00
  TU1011A            148.00      1.95     17.60
  TU173              148.00      1.08      4.21
  TU174               -0.00      0.00      0.00
  TU175              148.00      0.68      1.35
  TU176             1080.00      1.06      1.23
  TU177             1194.00      1.17      1.48
  TU178              942.00      0.93      0.96
  TU179              541.00      1.54      4.56
  TU18                63.00      0.72      2.62
  TU180              369.00      1.05      2.26
  TU181              195.00      1.64      9.84
  TU182              369.00      1.69      7.22
  TU183                0.00      0.00      0.00
  TU184                0.00      0.00      0.00
  TU185              434.00      0.96      1.65
  TU186              295.00      0.80      1.32
  TU187              383.00      0.85      1.32
  TU188             1928.00      1.39      1.70
  TU189             1928.00      1.39      1.70
  TU19                78.00      1.39     11.32
  TU190               73.00      0.96      4.81
  TU191               -0.00      0.00      0.00
  TU192                0.00      0.00      0.00
  TU193                0.00      0.00      0.00
  TU194               -0.00      0.00      0.00
  TU195                0.00      0.00      0.00
  TU196                0.00      0.00      0.00
  TU197               -0.00      0.00      0.00
  TU198                0.00      0.00      0.00
  TU199                0.00      0.00      0.00
  TU2                172.00      1.96     16.45
  TU20               141.00      1.03      3.85
  TU200               -0.00      0.00      0.00
  TU201                0.00      0.00      0.00
  TU203                0.00      0.00      0.00
  TU204             2289.00      1.00      0.68
  TU205             2421.00      1.06      0.76
  TU21                73.00      0.61      1.64
  TU22              2069.00      1.14      1.01
  TU23              2069.00      1.14      1.01
  TU24              2142.00      1.18      1.07
  TU25              2206.00      1.22      1.14
  TU26              1175.00      1.15      1.44
  TU27              1175.00      1.15      1.44
  TU28              1232.00      1.21      1.57
  TU29              1287.00      1.26      1.70
  TU3                  0.00      0.00      0.00
  TU30                 0.00      0.00      0.00
  TU31                67.00      0.76      2.93
  TU32                89.00      1.02      4.91
  TU33               156.00      0.71      1.49
  TU34               210.00      0.96      2.56
  TU35                69.00      1.23      9.05
  TU36                69.00      0.79      3.09
  TU37               279.00      0.79      1.35
  TU38               337.00      0.96      1.91
  TU39                -0.00      0.00      0.00
  TU4                730.00      1.03      1.45
  TU40                54.00      0.39      0.68
  TU41               391.00      0.86      1.37
  TU42                88.00      0.61      1.43
  TU43               487.00      0.69      0.69
  TU44               487.00      0.69      0.69
  TU45               552.00      0.78      0.87
  TU46               641.00      0.91      1.15
  TU47                89.00      1.58     14.42
  TU48               132.00      1.74     14.25
  TU49               132.00      1.11      4.81
  TU5                730.00      1.03      1.45
  TU50                 0.00      0.00      0.00
  TU51               132.00      0.70      1.58
  TU52               132.00      0.44      0.50
  TU53               132.00      0.44      0.50
  TU54                 0.00      0.00      0.00
  TU55               132.00      0.44      0.50
  TU56                 0.00      0.00      0.00
  TU57               132.00      0.37      0.35
  TU58                52.00      0.93      5.40
  TU59               184.00      0.52      0.63
  TU6                434.00      0.61      0.56
  TU60                73.00      1.50     14.35
  TU61                 0.00      0.00      0.00
  TU62               159.00      0.84      2.21
  TU63                 0.00      0.00      0.00
  TU64               159.00      0.84      2.21
  TU65                76.00      1.57     15.45
  TU66               235.00      0.78      1.43
  TU67               287.00      0.81      1.42
  TU68               287.00      0.81      1.42
  TU69               471.00      0.67      0.65
  TU7                111.00      1.87     18.89
  TU70               471.00      0.67      0.65
  TU71               471.00      0.67      0.65
  TU72               355.00      0.78      1.15
  TU73               486.00      1.07      2.04
  TU74               548.00      1.21      2.54
  TU75               548.00      1.21      2.54
  TU76               636.00      1.41      3.34
  TU77               704.00      1.56      4.03
  TU78                58.00      1.20      9.42
  TU79               108.00      1.42      9.85
  TU8                 94.00      1.01      4.73
  TU80                62.00      1.28     10.64
  TU81               170.00      1.43      7.65
  TU82                58.00      1.03      6.59
  TU83               118.00      1.55     11.59
  TU84                 0.00      0.00      0.00
  TU85                67.00      0.49      1.00
  TU86                67.00      0.31      0.32
  TU87                67.00      0.36      0.46
  TU88               185.00      0.41      0.35
  TU89                59.00      1.05      6.80
  TU9                  0.00      0.00      0.00
  TU90                 0.00      0.00      0.00
  TU91                59.00      0.67      2.32
  TU92               211.00      0.97      2.58
  TU93               211.00      0.60      0.81
  TU94                91.00      1.04      5.11
  TU95               302.00      0.86      1.56
  TU96                 0.00      0.00      0.00
  TU97                59.00      1.05      6.80
  TU98                59.00      0.67      2.32
  TU99               361.00      0.80      1.18
  TU4000              66.00      0.87      4.01
   
  Analysis ended Fri Dec  1 10:04:22 2023
