  Page 1                                    Fri Dec  1 10:10:26 2023

  ******************************************************************
  *                           E P A N E T                          *
  *                   Hydraulic and Water Quality                  *
  *                   Analysis for Pipe Networks                   *
  *                         Version 2.2                            *
  ******************************************************************
  
  Analysis begun Fri Dec  1 10:10:26 2023

   
  Node Results:
  ----------------------------------------------
                     Demand      Head  Pressure
  Node                 m3/h         m         m
  ----------------------------------------------
  3661                 0.00    428.96     50.82
  482                  0.00    427.95     81.95
  661                  0.00    428.94     98.94
  6610                 0.00    428.01      2.89
  6611                 0.00    426.93     91.93
  6612                 0.00    428.40     66.03
  6613                 0.00    425.22     70.22
  6615                 0.00    428.95     89.95
  6616                 0.00    428.94     67.94
  6617                 0.00    428.94     85.94
  6618                 0.00    428.95     80.95
  662                  0.00    428.75    100.75
  6620                 0.00    428.91    120.91
  6621                 0.00    428.91    100.91
  6622                 0.00    428.91     91.91
  6623                 0.00    428.91     77.91
  6624                 0.00    428.92     76.92
  6625                 0.00    428.92    116.92
  6626                 0.00    428.92    107.92
  6627                 0.00    428.94    107.94
  6628                 0.00    428.11     89.11
  6629                 0.00    428.54     88.54
  663                  0.00    428.57     87.57
  6630                 0.00    428.66      3.54
  6632                 0.00    428.71     88.71
  6633                 0.00    428.91     66.27
  6634                 0.00    428.93     57.93
  6635                 0.00    428.92     76.92
  6636                 0.00    428.92     72.92
  6637                 0.00    428.89     61.89
  6639                 0.00    428.25     68.25
  664                  0.00    428.33     80.33
  6640                 0.00    428.20     68.20
  6641                 0.00    428.28     69.60
  6642                 0.00    428.18     72.18
  6643                 0.00    428.50     76.50
  6644                 0.00    428.52     76.52
  6645                 0.00    428.53     78.53
  6646                 0.00    428.33     81.31
  6648                 0.00    428.33     82.32
  6649                 0.00    428.04     89.04
  665                  0.00    428.14     83.14
  666                  0.00    428.66     88.66
  6665                 0.00    428.89     63.75
  6666                 0.00    428.89     61.23
  667                  0.00    428.52     76.52
  668                  0.00    428.94     98.94
  669                  0.00    428.45     83.45
  1                    0.00    428.83     98.83
  10                   0.00    428.50     76.50
  100                152.00    428.13     73.13
  100B                 0.00    428.20     70.20
  101                157.00    424.53     71.53
  103                  0.00    424.98     85.98
  104                154.00    424.82     85.82
  105                  0.00    425.22     70.22
  106                 54.00    425.15     70.15
  107                  0.00    428.95     89.95
  108                  0.00    428.95     93.39
  109                  0.00    428.95     91.95
  11B                 93.00    428.04     85.04
  110                  0.00    428.94     82.94
  111                 44.00    428.94     90.96
  112                  0.00    428.94     86.94
  113                  0.00    428.94    105.94
  114                  0.00    428.94     80.94
  115                  0.00    428.94     82.94
  116                  0.00    428.94     83.94
  117                  0.00    428.94     85.94
  118                  0.00    428.94     89.94
  119                  0.00    428.94    106.13
  12                  99.00    427.62     97.28
  121                  0.00    428.94     78.94
  122                  0.00    428.94     81.94
  123                  0.00    428.94     82.94
  125                  0.00    428.94     77.94
  126                  0.00    428.94     80.94
  127                  0.00    428.94     85.61
  128                  0.00    428.94     66.94
  129                  0.00    428.94     72.94
  130                  0.00    428.94     87.86
  130B                 0.00    428.94     75.94
  132                  0.00    428.94     95.94
  134                  0.00    428.94    107.94
  135                  0.00    428.94    112.94
  137                  0.00    428.94    119.94
  139                  0.00    428.94     68.94
  14                   0.00    427.11     89.11
  140                  0.00    428.94     77.94
  141                  0.00    428.94     76.94
  142                  0.00    428.94     67.94
  143                  0.00    428.94     87.97
  144                  0.00    428.94     69.94
  146                  0.00    428.92     82.92
  147                  0.00    428.92    107.92
  148                  0.00    428.92     95.92
  149                  0.00    428.92    115.71
  15                   0.00    426.93     91.93
  150                  0.00    428.92    120.85
  151                  0.00    428.92    123.68
  152                  0.00    428.92    118.90
  153                  0.00    428.92    118.92
  154                  0.00    428.91    103.91
  157                  0.00    428.91    125.91
  158A                 0.00    428.91    107.91
  158B                 0.00    428.91    107.91
  16B                  0.00    427.21     93.21
  160                  0.00    428.89     61.89
  162                  0.00    428.89     60.89
  163                  0.00    428.89     54.89
  164                  0.00    428.89     69.23
  165                  0.00    428.89     67.59
  166                  0.00    428.89     67.88
  167                  0.00    428.89     58.25
  169                  0.00    428.89     62.39
  17A                  0.00    426.74     91.74
  170                  0.00    428.90     69.90
  17B                  0.00    426.54     91.54
  171                  0.00    428.92     76.92
  172                  0.00    428.92     88.92
  18B                223.00    420.62     95.62
  19                   0.00    428.91     70.91
  2                    0.00    428.77    102.77
  20                   0.00    428.96     64.96
  2002                 0.00    428.45     78.45
  2003                 0.00    428.45     78.45
  21                   0.00    428.95     66.22
  22                   0.00    428.95     67.35
  222                  0.00    428.95     78.95
  24                   0.00    428.95     84.95
  25                   0.00    428.95     83.95
  26                   0.00    428.95     80.95
  27                   0.00    428.95     78.95
  28                   0.00    428.94     80.94
  29                   0.00    428.94     72.94
  3                    0.00    428.67     88.32
  30                   0.00    428.94     67.94
  3002                 0.00    428.96     42.96
  3004                 0.00    428.96     42.96
  3005                 0.00    428.96     42.96
  3008                 0.00    428.96     43.96
  3012                 0.00    428.96     58.23
  3013                 0.00    428.96     64.03
  3016                 0.00    428.96     63.96
  3017                 0.00    428.96     46.96
  3018                 0.00    428.93     51.93
  3019                 0.00    428.96     59.57
  3020                 0.00    428.96     60.85
  3024                 0.00    428.96     64.02
  31                   0.00    428.93     71.14
  3152                 0.00    428.96     62.76
  32                   0.00    428.93     70.93
  34                  72.00    428.74     77.72
  35                   0.00    428.91     91.91
  36                   0.00    428.91    100.91
  39                   0.00    428.91    115.91
  41                   0.00    428.91    121.91
  46                   0.00    428.93     52.93
  47                   0.00    428.89     70.71
  48                   0.00    427.55     83.55
  49                  77.00    424.56     72.56
  5                    0.00    428.62     81.62
  52                  87.00    424.52     73.52
  53                   0.00    428.93     72.93
  54                   0.00    428.88     83.88
  55                   0.00    428.83     98.83
  56                   0.00    428.83     94.83
  58                   0.00    428.83     95.83
  59                   0.00    428.83     99.83
  6                    0.00    428.52     76.52
  60                   0.00    428.67     83.67
  61                   0.00    428.67     89.67
  62                   0.00    428.52     74.52
  64                   0.00    428.73     97.73
  65                   0.00    428.71     88.71
  66                   0.00    428.71     89.71
  67                   0.00    428.68     96.68
  68                   0.00    428.66     89.66
  69                   0.00    428.66     77.66
  7                    0.00    428.44     75.44
  70                 121.00    428.11     88.11
  71                   0.00    428.54     91.54
  72                   0.00    428.52     72.52
  73                   0.00    428.49     73.49
  77                   0.00    428.52     72.52
  78                   0.00    428.52     88.38
  79                   0.00    428.43     75.43
  8                    0.00    428.53     78.53
  80                   0.00    428.33     79.33
  81                   0.00    428.33     69.33
  82                   0.00    428.33     70.33
  85                   0.00    428.11     89.11
  86                   0.00    428.11     91.11
  87                   0.00    428.43     68.43
  88                   0.00    428.40     75.40
  89                   0.00    428.34     61.34
  90                   0.00    428.18     72.18
  91                   0.00    428.25     56.25
  92                   0.00    428.01     68.01
  91B                 86.00    427.93     67.93
  94                   0.00    428.04     89.04
  95                   0.00    427.80     84.80
  97                   0.00    427.65     96.65
  99                   0.00    428.34     78.34
  74                   0.00    428.49     69.78
  1074                 0.00    428.49     70.49
  11A                 76.00    427.58     84.58
  1011                 0.00    427.65     84.65
  0                -1495.00    429.00      0.00  Reservoir
   
   
  Link Results:
  ----------------------------------------------
                       Flow  Velocity  Headloss
  Link                 m3/h       m/s    /1000m
  ----------------------------------------------
  TU1                 -0.00      0.00      0.00
  TU10                 0.00      0.00      0.00
  TU100              121.00      0.27      0.16
  TU101              121.00      0.17      0.06
  TU102                0.00      0.00      0.00
  TU103              121.00      0.17      0.06
  TU104              121.00      0.17      0.06
  TU105             1094.00      0.48      0.18
  TU106             1094.00      0.48      0.18
  TU107                0.00      0.00      0.00
  TU108             1094.00      0.48      0.18
  TU109             1215.00      0.53      0.21
  TU11               211.00      0.97      2.58
  TU110             1215.00      0.53      0.21
  TU111               -0.00      0.00      0.00
  TU112               -0.00      0.00      0.00
  TU113                0.00      0.00      0.00
  TU114                0.00      0.00      0.00
  TU115             1215.00      0.43      0.13
  TU116             1215.00      0.43      0.13
  TU117                0.00      0.00      0.00
  TU118                0.00      0.00      0.00
  TU119             1215.00      0.43      0.13
  TU12               154.00      1.76     13.41
  TU120             1215.00      0.43      0.13
  TU121                0.00      0.00      0.00
  TU122                0.00      0.00      0.00
  TU123               -0.00      0.00      0.00
  TU124               87.00      0.99      4.71
  TU125              164.00      1.20      5.08
  TU126              164.00      0.75      1.63
  TU127              164.00      0.75      1.63
  TU128                0.00      0.00      0.00
  TU129                0.00      0.00      0.00
  TU13               154.00      1.13      4.52
  TU130               -0.00      0.00      0.00
  TU131               -0.00      0.00      0.00
  TU132                0.00      0.00      0.00
  TU133               -0.00      0.00      0.00
  TU134               86.00      0.93      4.02
  TU135               -0.00      0.00      0.00
  TU136                0.00      0.00      0.00
  TU137              164.00      0.23      0.10
  TU138              164.00      0.23      0.10
  TU139              164.00      0.16      0.04
  TU14               365.00      0.81      1.21
  TU140              164.00      0.16      0.04
  TU141                0.00      0.00      0.00
  TU142                0.00      0.00      0.00
  TU143               -0.00      0.00      0.00
  TU144               -0.00      0.00      0.00
  TU145               86.00      0.60      1.37
  TU146               86.00      0.37      0.45
  TU147               86.00      0.23      0.14
  TU148               -0.00      0.00      0.00
  TU149              152.00      1.05      3.88
  TU15                -0.00      0.00      0.00
  TU150              152.00      1.05      3.88
  TU151              238.00      0.34      0.19
  TU152               -0.00      0.00      0.00
  TU15301            238.00      0.34      0.19
  TU15302            238.00      0.34      0.19
  TU1074               0.00      0.00      0.00
  TU154              238.00      0.23      0.08
  TU155               -0.00      0.00      0.00
  TU156              238.00      0.23      0.08
  TU157              238.00      0.23      0.08
  TU158                0.00      0.00      0.00
  TU159              238.00      0.23      0.08
  TU16              1495.00      0.27      0.04
  TU160                0.00      0.00      0.00
  TU161              238.00      0.23      0.08
  TU162              856.00      0.62      0.38
  TU163              856.00      0.62      0.38
  TU164              856.00      0.62      0.38
  TU166               -0.00      0.00      0.00
  TU167               -0.00      0.00      0.00
  TU168                0.00      0.00      0.00
  TU169                0.00      0.00      0.00
  TU17                -0.00      0.00      0.00
  TU170                0.00      0.00      0.00
  TU171              856.00      0.62      0.38
  TU17201             76.00      1.00      5.18
  TU17202              0.00      0.00      0.00
  TU1011A             76.00      1.00      5.18
  TU173               76.00      0.56      1.25
  TU174               -0.00      0.00      0.00
  TU175               76.00      0.35      0.41
  TU176              687.00      0.67      0.54
  TU177              780.00      0.77      0.68
  TU178              588.00      0.58      0.40
  TU179              223.00      0.63      0.90
  TU18                 0.00      0.00      0.00
  TU180              223.00      0.63      0.90
  TU181              223.00      1.88     12.61
  TU182              223.00      1.02      2.86
  TU183                0.00      0.00      0.00
  TU184                0.00      0.00      0.00
  TU185               -0.00      0.00      0.00
  TU186               -0.00      0.00      0.00
  TU187               -0.00      0.00      0.00
  TU188              116.00      0.08      0.01
  TU189              116.00      0.08      0.01
  TU19                 0.00      0.00      0.00
  TU190               -0.00      0.00      0.00
  TU191               -0.00      0.00      0.00
  TU192                0.00      0.00      0.00
  TU193                0.00      0.00      0.00
  TU194               -0.00      0.00      0.00
  TU195                0.00      0.00      0.00
  TU196                0.00      0.00      0.00
  TU197                0.00      0.00      0.00
  TU198                0.00      0.00      0.00
  TU199                0.00      0.00      0.00
  TU2                  0.00      0.00      0.00
  TU20                 0.00      0.00      0.00
  TU200               -0.00      0.00      0.00
  TU201                0.00      0.00      0.00
  TU203                0.00      0.00      0.00
  TU204              116.00      0.05      0.00
  TU205              116.00      0.05      0.00
  TU21                -0.00      0.00      0.00
  TU22               116.00      0.06      0.01
  TU23               116.00      0.06      0.01
  TU24               116.00      0.06      0.00
  TU25               116.00      0.06      0.01
  TU26                72.00      0.07      0.01
  TU27                72.00      0.07      0.01
  TU28                72.00      0.07      0.01
  TU29                72.00      0.07      0.01
  TU3                  0.00      0.00      0.00
  TU30                 0.00      0.00      0.00
  TU31                -0.00      0.00      0.00
  TU32                 0.00      0.00      0.00
  TU33                 0.00      0.00      0.00
  TU34                 0.00      0.00      0.00
  TU35                 0.00      0.00      0.00
  TU36                 0.00      0.00      0.00
  TU37                 0.00      0.00      0.00
  TU38                 0.00      0.00      0.00
  TU39                -0.00      0.00      0.00
  TU4                238.00      0.34      0.19
  TU40                -0.00      0.00      0.00
  TU41                -0.00      0.00      0.00
  TU42                 0.00      0.00      0.00
  TU43                44.00      0.06      0.01
  TU44                44.00      0.06      0.01
  TU45                44.00      0.06      0.01
  TU46                44.00      0.06      0.01
  TU47                -0.00      0.00      0.00
  TU48                 0.00      0.00      0.00
  TU49                 0.00      0.00      0.00
  TU5                238.00      0.34      0.19
  TU50                 0.00      0.00      0.00
  TU51                 0.00      0.00      0.00
  TU52                 0.00      0.00      0.00
  TU53                 0.00      0.00      0.00
  TU54                 0.00      0.00      0.00
  TU55                 0.00      0.00      0.00
  TU56                 0.00      0.00      0.00
  TU57                 0.00      0.00      0.00
  TU58                72.00      1.28      9.78
  TU59                72.00      0.20      0.12
  TU6                 -0.00      0.00      0.00
  TU60                -0.00      0.00      0.00
  TU61                 0.00      0.00      0.00
  TU62                -0.00      0.00      0.00
  TU63                 0.00      0.00      0.00
  TU64                 0.00      0.00      0.00
  TU65                 0.00      0.00      0.00
  TU66                 0.00      0.00      0.00
  TU67                 0.00      0.00      0.00
  TU68                 0.00      0.00      0.00
  TU69                72.00      0.10      0.02
  TU7                  0.00      0.00      0.00
  TU70                72.00      0.10      0.02
  TU71                72.00      0.10      0.02
  TU72                 0.00      0.00      0.00
  TU73                 0.00      0.00      0.00
  TU74                 0.00      0.00      0.00
  TU75                 0.00      0.00      0.00
  TU76                 0.00      0.00      0.00
  TU77                 0.00      0.00      0.00
  TU78                 0.00      0.00      0.00
  TU79                 0.00      0.00      0.00
  TU8                157.00      1.69     12.12
  TU80                 0.00      0.00      0.00
  TU81                 0.00      0.00      0.00
  TU82                 0.00      0.00      0.00
  TU83                 0.00      0.00      0.00
  TU84                 0.00      0.00      0.00
  TU85                 0.00      0.00      0.00
  TU86                 0.00      0.00      0.00
  TU87                 0.00      0.00      0.00
  TU88                 0.00      0.00      0.00
  TU89                 0.00      0.00      0.00
  TU9                 54.00      0.91      5.05
  TU90                 0.00      0.00      0.00
  TU91                -0.00      0.00      0.00
  TU92               121.00      0.55      0.94
  TU93               121.00      0.34      0.30
  TU94                 0.00      0.00      0.00
  TU95               121.00      0.34      0.30
  TU96                 0.00      0.00      0.00
  TU97                 0.00      0.00      0.00
  TU98                 0.00      0.00      0.00
  TU99               121.00      0.27      0.16
  TU4000               0.00      0.00      0.00
   
  Analysis ended Fri Dec  1 10:10:26 2023
