  Page 1                                    Fri Dec  1 10:01:22 2023

  ******************************************************************
  *                           E P A N E T                          *
  *                   Hydraulic and Water Quality                  *
  *                   Analysis for Pipe Networks                   *
  *                         Version 2.2                            *
  ******************************************************************
  
  Analysis begun Fri Dec  1 10:01:22 2023

   
  Node Results:
  ----------------------------------------------
                     Demand      Head  Pressure
  Node                 m3/h         m         m
  ----------------------------------------------
  3661                 0.00    428.16     50.02
  482                  0.00    427.87     81.87
  661                  0.00    426.15     96.15
  6610                 0.00    422.35     -2.77
  6611                 0.00    425.97     90.97
  6612                 0.00    425.50     63.13
  6613                 0.00    425.67     70.67
  6615                 0.00    427.52     88.52
  6616                 0.00    426.85     65.85
  6617                 0.00    425.28     82.28
  6618                 0.00    427.39     79.39
  662                  0.00    427.49     99.49
  6620                 0.00    426.69    118.69
  6621                 0.00    426.69     98.69
  6622                 0.00    426.69     89.69
  6623                 0.00    426.69     75.69
  6624                 0.00    426.70     74.70
  6625                 0.00    425.87    113.87
  6626                 0.00    426.34    105.34
  6627                 0.00    424.98    103.98
  6628                 0.00    423.29     84.29
  6629                 0.00    425.76     85.76
  663                  0.00    426.97     85.97
  6630                 0.00    426.40      1.28
  6632                 0.00    426.83     86.83
  6633                 0.00    428.26     65.62
  6634                 0.00    428.35     57.35
  6635                 0.00    428.07     76.07
  6636                 0.00    428.07     72.07
  6637                 0.00    427.87     60.87
  6639                 0.00    424.04     64.04
  664                  0.00    426.71     78.71
  6640                 0.00    423.52     63.52
  6641                 0.00    424.93     66.25
  6642                 0.00    424.93     68.93
  6643                 0.00    426.08     74.08
  6644                 0.00    426.26     74.26
  6645                 0.00    426.35     76.35
  6646                 0.00    422.88     75.86
  6648                 0.00    423.15     77.14
  6649                 0.00    426.48     87.48
  665                  0.00    426.60     81.60
  666                  0.00    426.40     86.40
  6665                 0.00    425.82     60.68
  6666                 0.00    427.34     59.68
  667                  0.00    426.24     74.24
  668                  0.00    426.14     96.14
  669                  0.00    425.51     80.51
  1                    0.00    427.85     97.85
  10                   0.00    426.08     74.08
  100                  0.00    424.93     69.93
  100B                92.00    422.93     64.93
  101                  0.00    425.67     72.67
  103                  0.00    426.20     87.20
  104                  0.00    426.20     87.20
  105                105.00    425.64     70.64
  106                  0.00    425.67     70.67
  107                 72.00    427.26     88.26
  108                  0.00    427.52     91.96
  109                  0.00    427.52     90.52
  11B                116.00    426.54     83.54
  110                  0.00    427.35     81.35
  111                  0.00    427.21     89.23
  112                  0.00    427.28     85.28
  113                  0.00    427.01    104.01
  114                  0.00    426.34     78.34
  115                 54.00    425.66     79.66
  116                  0.00    426.01     81.01
  117                 79.00    425.18     82.18
  118                 62.00    424.58     85.58
  119                  0.00    424.58    101.77
  12                 140.00    426.34     96.00
  121                 55.00    426.69     76.69
  122                 67.00    422.12     75.12
  123                  0.00    425.46     79.46
  125                  0.00    426.67     75.67
  126                  0.00    426.67     78.67
  127                  0.00    426.67     83.34
  128                 58.00    426.82     64.82
  129                  0.00    426.43     70.43
  130                  0.00    426.25     85.17
  130B                70.00    426.34     73.34
  132                 58.00    419.67     86.67
  134                  0.00    424.98    103.98
  135                 58.00    422.91    106.91
  137                 57.00    419.19    110.19
  139                  0.00    426.14     66.14
  14                   0.00    426.20     88.20
  140                  0.00    426.14     75.14
  141                  0.00    426.14     74.14
  142                  0.00    426.14     65.14
  143                 62.00    416.83     75.86
  144                 83.00    426.61     67.61
  146                  0.00    426.52     80.52
  147                  0.00    426.34    105.34
  148                  0.00    426.49     93.49
  149                  0.00    425.87    112.66
  15                 208.00    425.38     90.38
  150                 90.00    425.32    117.25
  151                  0.00    425.07    119.83
  152                 69.00    423.13    113.11
  153                  0.00    423.79    113.79
  154                  0.00    426.69    101.69
  157                  0.00    426.69    123.69
  158A                 0.00    426.69    105.69
  158B                 0.00    426.69    105.69
  16B                  0.00    426.21     92.21
  160                 63.00    427.82     60.82
  162                  0.00    427.59     59.59
  163                 78.00    427.11     53.11
  164                  0.00    426.97     67.31
  165                 63.00    425.92     64.62
  166                 91.00    425.93     64.92
  167                 80.00    425.71     55.07
  169                 75.00    426.60     60.10
  17A                  0.00    425.97     90.97
  170                  0.00    427.98     68.98
  17B                  0.00    425.97     90.97
  171                  0.00    428.07     76.07
  172                  0.00    428.07     88.07
  18B                  0.00    425.97    100.97
  19                   0.00    428.26     70.26
  2                    0.00    427.57    101.57
  20                  85.00    428.16     64.16
  2002                 0.00    425.51     75.51
  2003                 0.00    425.51     75.51
  21                  63.00    428.06     65.33
  22                  64.00    428.05     66.45
  222                  0.00    427.88     77.88
  24                   0.00    427.77     83.77
  25                   0.00    427.61     82.61
  26                  81.00    427.11     79.11
  27                   0.00    427.45     77.45
  28                 102.00    427.28     79.28
  29                  51.00    426.91     70.91
  3                   67.00    427.26     86.91
  30                   0.00    426.86     65.86
  3002                 0.00    428.16     42.16
  3004                 0.00    428.16     42.16
  3005                 0.00    428.16     42.16
  3008                 0.00    428.16     43.16
  3012                 0.00    428.16     57.43
  3013                 0.00    428.16     63.23
  3016               132.00    428.24     63.24
  3017               124.00    428.52     46.52
  3018                71.00    427.91     50.91
  3019                 0.00    428.16     58.77
  3020                 0.00    428.16     60.05
  3024                 0.00    428.16     63.22
  31                  51.00    426.74     68.95
  3152                 0.00    428.16     61.96
  32                   0.00    426.79     68.79
  34                  70.00    426.52     75.50
  35                   0.00    426.69     89.69
  36                   0.00    426.69     98.69
  39                   0.00    426.69    113.69
  41                   0.00    426.69    119.69
  46                 166.00    428.16     52.16
  47                   0.00    426.74     68.56
  48                   0.00    427.87     83.87
  49                   0.00    427.87     75.87
  5                    0.00    427.11     80.11
  52                   0.00    427.87     76.87
  53                 125.00    425.91     69.91
  54                   0.00    428.12     83.12
  55                   0.00    426.35     96.35
  56                  51.00    425.62     91.62
  58                 129.00    420.83     87.83
  59                 171.00    416.79     87.79
  6                   57.00    426.07     74.07
  60                   0.00    427.26     82.26
  61                   0.00    427.26     88.26
  62                   0.00    425.94     71.94
  64                  48.00    427.19     96.19
  65                  89.00    426.44     86.44
  66                  81.00    426.82     87.82
  67                 104.00    426.52     94.52
  68                   0.00    426.40     87.40
  69                   0.00    426.40     75.40
  7                    0.00    426.82     73.82
  70                 157.00    424.53     84.53
  71                  97.00    423.54     86.54
  72                  97.00    425.94     69.94
  73                   0.00    426.04     71.04
  77                 122.00    422.23     66.23
  78                   0.00    425.94     85.80
  79                  62.00    426.81     73.81
  8                   68.00    426.09     76.09
  80                   0.00    426.60     77.60
  81                  66.00    421.58     62.58
  82                 130.00    422.10     64.10
  85                  58.00    423.02     84.02
  86                   0.00    423.29     86.29
  87                   0.00    425.67     65.67
  88                   0.00    425.50     72.50
  89                  65.00    425.14     58.14
  90                   0.00    424.93     68.93
  91                 177.00    423.63     51.63
  92                  61.00    422.30     62.30
  91B                173.00    422.04     62.04
  94                   0.00    426.48     87.48
  95                   0.00    426.21     83.21
  97                   0.00    426.03     95.03
  99                  53.00    424.72     74.72
  74                  77.00    423.80     65.09
  1074                 0.00    426.00     68.00
  11A                 82.00    425.95     82.95
  1011                 0.00    426.03     83.03
  0                -5632.00    429.00      0.00  Reservoir
   
   
  Link Results:
  ----------------------------------------------
                       Flow  Velocity  Headloss
  Link                 m3/h       m/s    /1000m
  ----------------------------------------------
  TU1                 61.00      0.67      2.21
  TU10               105.00      1.13      5.79
  TU100              416.00      0.92      1.53
  TU101              497.00      0.70      0.72
  TU102               89.00      1.58     14.42
  TU103              586.00      0.83      0.97
  TU104              634.00      0.90      1.12
  TU105             1951.00      0.85      0.51
  TU106             1951.00      0.85      0.51
  TU107                0.00      0.00      0.00
  TU108             2018.00      0.88      0.54
  TU109             2652.00      1.16      0.90
  TU11               105.00      0.48      0.73
  TU110             2652.00      1.16      0.90
  TU111              171.00      2.25     22.99
  TU112              300.00      2.19     15.46
  TU113              351.00      1.86      9.48
  TU114              351.00      1.86      9.48
  TU115             3003.00      1.06      0.68
  TU116             3003.00      1.06      0.68
  TU117              125.00      1.35      7.97
  TU118                0.00      0.00      0.00
  TU119             3003.00      1.06      0.68
  TU12                 0.00      0.00      0.00
  TU120             3128.00      1.11      0.73
  TU121               -0.00      0.00      0.00
  TU122                0.00      0.00      0.00
  TU123               -0.00      0.00      0.00
  TU124                0.00      0.00      0.00
  TU125               -0.00      0.00      0.00
  TU126               -0.00      0.00      0.00
  TU127               -0.00      0.00      0.00
  TU128               80.00      0.35      0.39
  TU129               80.00      0.35      0.39
  TU13                 0.00      0.00      0.00
  TU130              143.00      0.62      1.12
  TU131              234.00      1.02      2.77
  TU132               75.00      0.33      0.35
  TU133              309.00      1.35      4.61
  TU134              173.00      1.87     14.50
  TU135              387.00      0.86      1.34
  TU136              450.00      0.99      1.77
  TU137              450.00      0.64      0.60
  TU138              450.00      0.64      0.60
  TU139              450.00      0.44      0.25
  TU14               105.00      0.23      0.13
  TU140              687.00      0.67      0.54
  TU141                0.00      0.00      0.00
  TU142              219.00      0.59      0.77
  TU143              177.00      0.77      1.66
  TU144               92.00      0.99      4.55
  TU145              234.00      1.62      8.56
  TU146              326.00      1.42      5.09
  TU147              503.00      1.36      3.53
  TU148               -0.00      0.00      0.00
  TU149               -0.00      0.00      0.00
  TU15                -0.00      0.00      0.00
  TU150               -0.00      0.00      0.00
  TU151              503.00      0.71      0.73
  TU152               53.00      0.61      1.91
  TU15301            698.00      0.99      1.34
  TU15302            621.00      0.88      1.08
  TU1074              77.00      1.01      5.31
  TU154              698.00      0.69      0.55
  TU155                0.00      0.00      0.00
  TU156              698.00      0.69      0.55
  TU157              917.00      0.90      0.91
  TU158               57.00      1.01      6.38
  TU159              974.00      0.96      1.02
  TU16              5632.00      1.02      0.42
  TU160               68.00      1.21      8.81
  TU161             1042.00      1.02      1.15
  TU162              909.00      0.66      0.42
  TU163              847.00      0.61      0.37
  TU164              909.00      0.66      0.43
  TU166               66.00      1.36     11.93
  TU167              130.00      1.71     13.85
  TU168              130.00      1.71     13.85
  TU169              196.00      1.65      9.94
  TU17                -0.00      0.00      0.00
  TU170              196.00      0.90      2.26
  TU171              651.00      0.47      0.23
  TU17201             82.00      1.08      5.95
  TU17202              0.00      0.00      0.00
  TU1011A             82.00      1.08      5.95
  TU173               82.00      0.60      1.44
  TU174               -0.00      0.00      0.00
  TU175               82.00      0.38      0.46
  TU176              453.00      0.45      0.25
  TU177              569.00      0.56      0.38
  TU178              313.00      0.31      0.13
  TU179              208.00      0.59      0.79
  TU18                 0.00      0.00      0.00
  TU180               -0.00      0.00      0.00
  TU181                0.00      0.00      0.00
  TU182                0.00      0.00      0.00
  TU183                0.00      0.00      0.00
  TU184                0.00      0.00      0.00
  TU185              317.00      0.70      0.93
  TU186              309.00      0.83      1.44
  TU187              387.00      0.86      1.34
  TU188             1277.00      0.92      0.79
  TU189             1277.00      0.92      0.79
  TU19                72.00      1.28      9.78
  TU190               69.00      0.91      4.35
  TU191                0.00      0.00      0.00
  TU192                0.00      0.00      0.00
  TU193                0.00      0.00      0.00
  TU194               -0.00      0.00      0.00
  TU195                0.00      0.00      0.00
  TU196                0.00      0.00      0.00
  TU197                0.00      0.00      0.00
  TU198                0.00      0.00      0.00
  TU199                0.00      0.00      0.00
  TU2                208.00      2.37     23.39
  TU20                72.00      0.53      1.13
  TU200               -0.00      0.00      0.00
  TU201                0.00      0.00      0.00
  TU203               71.00      1.19      8.32
  TU204             1561.00      0.68      0.34
  TU205             1693.00      0.74      0.39
  TU21                69.00      0.58      1.48
  TU22              1349.00      0.75      0.46
  TU23              1349.00      0.75      0.46
  TU24              1413.00      0.78      0.50
  TU25              1476.00      0.82      0.54
  TU26               726.00      0.71      0.59
  TU27               726.00      0.71      0.59
  TU28               777.00      0.76      0.67
  TU29               879.00      0.86      0.84
  TU3                  0.00      0.00      0.00
  TU30                 0.00      0.00      0.00
  TU31                62.00      0.71      2.54
  TU32                79.00      0.90      3.95
  TU33               141.00      0.65      1.24
  TU34               195.00      0.89      2.24
  TU35                67.00      1.19      8.57
  TU36                67.00      0.76      2.93
  TU37               262.00      0.74      1.21
  TU38               262.00      0.74      1.21
  TU39                -0.00      0.00      0.00
  TU4                621.00      0.88      1.08
  TU40                 0.00      0.00      0.00
  TU41               262.00      0.58      0.66
  TU42                78.00      0.54      1.15
  TU43               317.00      0.45      0.32
  TU44               317.00      0.45      0.32
  TU45               317.00      0.45      0.32
  TU46               398.00      0.56      0.48
  TU47                81.00      1.44     12.13
  TU48                 0.00      0.00      0.00
  TU49                 0.00      0.00      0.00
  TU5                621.00      0.88      1.08
  TU50                 0.00      0.00      0.00
  TU51                 0.00      0.00      0.00
  TU52                 0.00      0.00      0.00
  TU53                 0.00      0.00      0.00
  TU54                 0.00      0.00      0.00
  TU55                 0.00      0.00      0.00
  TU56                -0.00      0.00      0.00
  TU57                 0.00      0.00      0.00
  TU58                70.00      1.25      9.29
  TU59                70.00      0.20      0.11
  TU6                317.00      0.45      0.32
  TU60                69.00      1.42     12.94
  TU61                 0.00      0.00      0.00
  TU62               159.00      0.84      2.21
  TU63                 0.00      0.00      0.00
  TU64               159.00      0.84      2.21
  TU65                 0.00      0.00      0.00
  TU66               159.00      0.53      0.70
  TU67               159.00      0.45      0.49
  TU68               159.00      0.45      0.49
  TU69               229.00      0.32      0.18
  TU7                122.00      2.05     22.49
  TU70               280.00      0.40      0.25
  TU71               280.00      0.40      0.25
  TU72               235.00      0.52      0.54
  TU73               235.00      0.52      0.54
  TU74               305.00      0.67      0.87
  TU75               305.00      0.67      0.87
  TU76               388.00      0.86      1.35
  TU77               446.00      0.99      1.74
  TU78                57.00      1.17      9.12
  TU79               115.00      1.51     11.06
  TU8                  0.00      0.00      0.00
  TU80                 0.00      0.00      0.00
  TU81               115.00      0.97      3.74
  TU82                62.00      1.10      7.44
  TU83               120.00      1.58     11.96
  TU84                 0.00      0.00      0.00
  TU85                 0.00      0.00      0.00
  TU86                 0.00      0.00      0.00
  TU87                 0.00      0.00      0.00
  TU88               120.00      0.27      0.16
  TU89                58.00      1.03      6.59
  TU9                  0.00      0.00      0.00
  TU90                 0.00      0.00      0.00
  TU91                58.00      0.66      2.25
  TU92               215.00      0.98      2.67
  TU93               215.00      0.61      0.84
  TU94                97.00      1.11      5.74
  TU95               312.00      0.89      1.66
  TU96                 0.00      0.00      0.00
  TU97                 0.00      0.00      0.00
  TU98                 0.00      0.00      0.00
  TU99               312.00      0.69      0.90
  TU4000               0.00      0.00      0.00
   
  Analysis ended Fri Dec  1 10:01:22 2023
