  Page 1                                    Fri Dec  1 09:49:55 2023

  ******************************************************************
  *                           E P A N E T                          *
  *                   Hydraulic and Water Quality                  *
  *                   Analysis for Pipe Networks                   *
  *                         Version 2.2                            *
  ******************************************************************
  
  Analysis begun Fri Dec  1 09:49:55 2023

   
  Node Results:
  ----------------------------------------------
                     Demand      Head  Pressure
  Node                 m3/h         m         m
  ----------------------------------------------
  3661                 0.00    428.98     50.84
  482                  0.00    428.15     82.15
  661                  0.00    428.98     98.98
  6610                 0.00    428.45      3.33
  6611                 0.00    428.80     93.80
  6612                 0.00    428.76     66.39
  6613                 0.00    428.80     73.80
  6615                 0.00    428.98     89.98
  6616                 0.00    428.98     67.98
  6617                 0.00    428.96     85.96
  6618                 0.00    428.97     80.97
  662                  0.00    428.92    100.92
  6620                 0.00    428.98    120.98
  6621                 0.00    428.98    100.98
  6622                 0.00    428.98     91.98
  6623                 0.00    428.98     77.98
  6624                 0.00    428.98     76.98
  6625                 0.00    428.98    116.98
  6626                 0.00    428.98    107.98
  6627                 0.00    428.98    107.98
  6628                 0.00    428.92     89.92
  6629                 0.00    428.92     88.92
  663                  0.00    428.87     87.87
  6630                 0.00    428.92      3.80
  6632                 0.00    428.92     88.92
  6633                 0.00    428.97     66.33
  6634                 0.00    428.97     57.97
  6635                 0.00    428.91     76.91
  6636                 0.00    428.91     72.91
  6637                 0.00    428.85     61.85
  6639                 0.00    428.70     68.70
  664                  0.00    428.84     80.84
  6640                 0.00    428.65     68.65
  6641                 0.00    428.74     70.06
  6642                 0.00    428.74     72.74
  6643                 0.00    428.82     76.82
  6644                 0.00    428.84     76.84
  6645                 0.00    428.84     78.84
  6646                 0.00    428.84     81.82
  6648                 0.00    428.84     82.83
  6649                 0.00    428.46     89.46
  665                  0.00    428.83     83.83
  666                  0.00    428.92     88.92
  6665                 0.00    428.49     63.35
  6666                 0.00    428.81     61.15
  667                  0.00    428.83     76.83
  668                  0.00    428.98     98.98
  669                  0.00    428.92     83.92
  1                   65.00    428.94     98.94
  10                   0.00    428.82     76.82
  100                  0.00    428.74     73.74
  100B                 0.00    428.65     70.65
  101                  0.00    428.80     75.80
  103                  0.00    428.80     89.80
  104                  0.00    428.80     89.80
  105                  0.00    428.80     73.80
  106                  0.00    428.80     73.80
  107                  0.00    428.98     89.98
  108                  0.00    428.98     93.42
  109                  0.00    428.98     91.98
  11B                  0.00    428.82     85.82
  110                  0.00    428.97     82.97
  111                 72.00    428.96     90.98
  112                  0.00    428.97     86.97
  113                  0.00    428.96    105.96
  114                  0.00    428.96     80.96
  115                  0.00    428.96     82.96
  116                  0.00    428.96     83.96
  117                  0.00    428.96     85.96
  118                  0.00    428.96     89.96
  119                  0.00    428.96    106.15
  12                   0.00    428.82     98.48
  121                  0.00    428.96     78.96
  122                  0.00    428.96     81.96
  123                  0.00    428.96     82.96
  125                  0.00    428.96     77.96
  126                  0.00    428.96     80.96
  127                  0.00    428.96     85.63
  128                  0.00    428.98     66.98
  129                  0.00    428.98     72.98
  130                  0.00    428.98     87.90
  130B                 0.00    428.98     75.98
  132                  0.00    428.98     95.98
  134                  0.00    428.98    107.98
  135                  0.00    428.98    112.98
  137                  0.00    428.98    119.98
  139                  0.00    428.98     68.98
  14                  83.00    428.80     90.80
  140                  0.00    428.98     77.98
  141                  0.00    428.98     76.98
  142                  0.00    428.98     67.98
  143                  0.00    428.98     88.01
  144                  0.00    428.98     69.98
  146                  0.00    428.98     82.98
  147                  0.00    428.98    107.98
  148                  0.00    428.98     95.98
  149                  0.00    428.98    115.77
  15                   0.00    428.80     93.80
  150                  0.00    428.98    120.91
  151                  0.00    428.98    123.74
  152                  0.00    428.98    118.96
  153                  0.00    428.98    118.98
  154                  0.00    428.98    103.98
  157                  0.00    428.98    125.98
  158A                 0.00    428.98    107.98
  158B                 0.00    428.98    107.98
  16B                  0.00    428.80     94.80
  160                  0.00    428.85     61.85
  162                  0.00    428.83     60.83
  163                  0.00    428.81     54.81
  164                  0.00    428.77     69.11
  165                  0.00    428.61     67.31
  166                  0.00    428.61     67.60
  167                 89.00    428.35     57.71
  169                  0.00    428.75     62.25
  17A                  0.00    428.80     93.80
  170                  0.00    428.88     69.88
  17B                  0.00    428.80     93.80
  171                  0.00    428.91     76.91
  172                  0.00    428.91     88.91
  18B                  0.00    428.80    103.80
  19                   0.00    428.97     70.97
  2                    0.00    428.93    102.93
  20                   0.00    428.98     64.98
  2002                 0.00    428.92     78.92
  2003                 0.00    428.92     78.92
  21                   0.00    428.98     66.25
  22                   0.00    428.98     67.38
  222                  0.00    428.98     78.98
  24                   0.00    428.98     84.98
  25                   0.00    428.98     83.98
  26                   0.00    428.97     80.97
  27                   0.00    428.98     78.98
  28                   0.00    428.98     80.98
  29                   0.00    428.98     72.98
  3                    0.00    428.90     88.55
  30                   0.00    428.98     67.98
  3002                 0.00    428.98     42.98
  3004                 0.00    428.98     42.98
  3005                 0.00    428.98     42.98
  3008                 0.00    428.98     43.98
  3012                 0.00    428.98     58.25
  3013                 0.00    428.98     64.05
  3016                 0.00    428.98     63.98
  3017                 0.00    428.98     46.98
  3018                 0.00    428.93     51.93
  3019                 0.00    428.98     59.59
  3020                 0.00    428.98     60.87
  3024                 0.00    428.98     64.04
  31                   0.00    428.98     71.19
  3152                 0.00    428.98     62.78
  32                   0.00    428.98     70.98
  34                   0.00    428.98     77.96
  35                   0.00    428.98     91.98
  36                   0.00    428.98    100.98
  39                   0.00    428.98    115.98
  41                   0.00    428.98    121.98
  46                   0.00    428.93     52.93
  47                   0.00    428.75     70.57
  48                   0.00    427.85     83.85
  49                  61.00    425.61     73.61
  5                    0.00    428.89     81.89
  52                  79.00    425.58     74.58
  53                   0.00    428.97     72.97
  54                   0.00    428.96     83.96
  55                   0.00    428.94     98.94
  56                   0.00    428.94     94.94
  58                   0.00    428.94     95.94
  59                   0.00    428.94     99.94
  6                    0.00    428.84     76.84
  60                   0.00    426.65     81.65
  61                  78.00    425.58     86.58
  62                   0.00    428.83     74.83
  64                   0.00    428.92     97.92
  65                   0.00    428.92     88.92
  66                   0.00    428.92     89.92
  67                   0.00    428.92     96.92
  68                   0.00    428.92     89.92
  69                   0.00    428.92     77.92
  7                    0.00    428.85     75.85
  70                   0.00    428.92     88.92
  71                   0.00    428.92     91.92
  72                   0.00    428.83     72.83
  73                   0.00    428.81     73.81
  77                   0.00    428.83     72.83
  78                   0.00    428.83     88.69
  79                  56.00    428.85     75.85
  8                    0.00    428.84     78.84
  80                   0.00    428.84     79.84
  81                   0.00    428.84     69.84
  82                   0.00    428.84     70.84
  85                   0.00    428.92     89.92
  86                   0.00    428.92     91.92
  87                 119.00    428.76     68.76
  88                   0.00    428.76     75.76
  89                   0.00    428.75     61.75
  90                   0.00    428.74     72.74
  91                   0.00    428.70     56.70
  92                   0.00    428.45     68.45
  91B                 89.00    428.36     68.36
  94                   0.00    428.46     89.46
  95                   0.00    427.64     84.64
  97                 151.00    419.75     88.75
  99                   0.00    428.75     78.75
  74                   0.00    428.81     70.10
  1074                 0.00    428.81     70.81
  11A                  0.00    427.10     84.10
  1011                 0.00    427.10     84.10
  0                 -942.00    429.00      0.00  Reservoir
   
   
  Link Results:
  ----------------------------------------------
                       Flow  Velocity  Headloss
  Link                 m3/h       m/s    /1000m
  ----------------------------------------------
  TU1                 -0.00      0.00      0.00
  TU10                 0.00      0.00      0.00
  TU100                0.00      0.00      0.00
  TU101                0.00      0.00      0.00
  TU102                0.00      0.00      0.00
  TU103                0.00      0.00      0.00
  TU104                0.00      0.00      0.00
  TU105              498.00      0.22      0.04
  TU106              498.00      0.22      0.04
  TU107                0.00      0.00      0.00
  TU108              576.00      0.25      0.05
  TU109              576.00      0.25      0.05
  TU11                -0.00      0.00      0.00
  TU110              576.00      0.25      0.05
  TU111                0.00      0.00      0.00
  TU112               -0.00      0.00      0.00
  TU113                0.00      0.00      0.00
  TU114                0.00      0.00      0.00
  TU115              641.00      0.23      0.04
  TU116              641.00      0.23      0.04
  TU117               -0.00      0.00      0.00
  TU118                0.00      0.00      0.00
  TU119              641.00      0.23      0.04
  TU12                 0.00      0.00      0.00
  TU120              641.00      0.23      0.04
  TU121                0.00      0.00      0.00
  TU122                0.00      0.00      0.00
  TU123               -0.00      0.00      0.00
  TU124               79.00      0.90      3.95
  TU125              140.00      1.02      3.80
  TU126              140.00      0.64      1.22
  TU127              140.00      0.64      1.22
  TU128               89.00      0.39      0.48
  TU129               89.00      0.39      0.48
  TU13                 0.00      0.00      0.00
  TU130               89.00      0.39      0.48
  TU131               89.00      0.39      0.48
  TU132                0.00      0.00      0.00
  TU133               89.00      0.39      0.48
  TU134               89.00      0.96      4.28
  TU135               89.00      0.20      0.09
  TU136               89.00      0.20      0.09
  TU137              229.00      0.32      0.18
  TU138              229.00      0.32      0.18
  TU139              229.00      0.22      0.07
  TU14                83.00      0.18      0.08
  TU140              229.00      0.22      0.07
  TU141                0.00      0.00      0.00
  TU142                0.00      0.00      0.00
  TU143               -0.00      0.00      0.00
  TU144               -0.00      0.00      0.00
  TU145               89.00      0.62      1.46
  TU146               89.00      0.39      0.48
  TU147               89.00      0.24      0.15
  TU148                0.00      0.00      0.00
  TU149               -0.00      0.00      0.00
  TU15                -0.00      0.00      0.00
  TU150               -0.00      0.00      0.00
  TU151               89.00      0.13      0.03
  TU152                0.00      0.00      0.00
  TU15301            208.00      0.29      0.15
  TU15302            208.00      0.29      0.15
  TU1074               0.00      0.00      0.00
  TU154              208.00      0.20      0.06
  TU155                0.00      0.00      0.00
  TU156              208.00      0.20      0.06
  TU157              208.00      0.20      0.06
  TU158                0.00      0.00      0.00
  TU159              208.00      0.20      0.06
  TU16               942.00      0.17      0.02
  TU160                0.00      0.00      0.00
  TU161              208.00      0.20      0.06
  TU162              290.00      0.21      0.05
  TU163              234.00      0.17      0.04
  TU164              290.00      0.21      0.06
  TU166               -0.00      0.00      0.00
  TU167               -0.00      0.00      0.00
  TU168                0.00      0.00      0.00
  TU169                0.00      0.00      0.00
  TU17                 0.00      0.00      0.00
  TU170                0.00      0.00      0.00
  TU171              234.00      0.17      0.04
  TU17201            151.00      1.99     18.26
  TU17202            151.00      1.99     18.26
  TU1011A             -0.00      0.00      0.00
  TU173              151.00      1.10      4.36
  TU174               -0.00      0.00      0.00
  TU175              151.00      0.69      1.40
  TU176               83.00      0.08      0.01
  TU177               83.00      0.08      0.01
  TU178               83.00      0.08      0.01
  TU179                0.00      0.00      0.00
  TU18                 0.00      0.00      0.00
  TU180                0.00      0.00      0.00
  TU181                0.00      0.00      0.00
  TU182                0.00      0.00      0.00
  TU183               78.00      0.89      3.86
  TU184                0.00      0.00      0.00
  TU185               -0.00      0.00      0.00
  TU186               89.00      0.24      0.15
  TU187               89.00      0.20      0.09
  TU188               72.00      0.05      0.00
  TU189               72.00      0.05      0.00
  TU19                 0.00      0.00      0.00
  TU190               -0.00      0.00      0.00
  TU191               78.00      1.39     11.32
  TU192                0.00      0.00      0.00
  TU193                0.00      0.00      0.00
  TU194               -0.00      0.00      0.00
  TU195                0.00      0.00      0.00
  TU196                0.00      0.00      0.00
  TU197                0.00      0.00      0.00
  TU198                0.00      0.00      0.00
  TU199                0.00      0.00      0.00
  TU2                  0.00      0.00      0.00
  TU20                 0.00      0.00      0.00
  TU200               -0.00      0.00      0.00
  TU201                0.00      0.00      0.00
  TU203                0.00      0.00      0.00
  TU204               72.00      0.03      0.00
  TU205               72.00      0.03      0.00
  TU21                -0.00      0.00      0.00
  TU22                72.00      0.04      0.00
  TU23                72.00      0.04      0.00
  TU24                72.00      0.04      0.00
  TU25                72.00      0.04      0.00
  TU26                -0.00      0.00      0.00
  TU27                 0.00      0.00      0.00
  TU28                 0.00      0.00      0.00
  TU29                 0.00      0.00      0.00
  TU3                  0.00      0.00      0.00
  TU30                 0.00      0.00      0.00
  TU31                -0.00      0.00      0.00
  TU32                 0.00      0.00      0.00
  TU33                 0.00      0.00      0.00
  TU34                 0.00      0.00      0.00
  TU35                 0.00      0.00      0.00
  TU36                 0.00      0.00      0.00
  TU37                 0.00      0.00      0.00
  TU38                 0.00      0.00      0.00
  TU39                -0.00      0.00      0.00
  TU4                 89.00      0.13      0.03
  TU40                -0.00      0.00      0.00
  TU41                -0.00      0.00      0.00
  TU42                 0.00      0.00      0.00
  TU43                72.00      0.10      0.02
  TU44                72.00      0.10      0.02
  TU45                72.00      0.10      0.02
  TU46                72.00      0.10      0.02
  TU47                 0.00      0.00      0.00
  TU48                 0.00      0.00      0.00
  TU49                 0.00      0.00      0.00
  TU5                 89.00      0.13      0.03
  TU50                 0.00      0.00      0.00
  TU51                 0.00      0.00      0.00
  TU52                 0.00      0.00      0.00
  TU53                 0.00      0.00      0.00
  TU54                 0.00      0.00      0.00
  TU55                 0.00      0.00      0.00
  TU56                 0.00      0.00      0.00
  TU57                 0.00      0.00      0.00
  TU58                 0.00      0.00      0.00
  TU59                 0.00      0.00      0.00
  TU6                 -0.00      0.00      0.00
  TU60                -0.00      0.00      0.00
  TU61                -0.00      0.00      0.00
  TU62                -0.00      0.00      0.00
  TU63                 0.00      0.00      0.00
  TU64                 0.00      0.00      0.00
  TU65                 0.00      0.00      0.00
  TU66                 0.00      0.00      0.00
  TU67                -0.00      0.00      0.00
  TU68                 0.00      0.00      0.00
  TU69                 0.00      0.00      0.00
  TU7                  0.00      0.00      0.00
  TU70                 0.00      0.00      0.00
  TU71                 0.00      0.00      0.00
  TU72                 0.00      0.00      0.00
  TU73                 0.00      0.00      0.00
  TU74                 0.00      0.00      0.00
  TU75                 0.00      0.00      0.00
  TU76                 0.00      0.00      0.00
  TU77                 0.00      0.00      0.00
  TU78                 0.00      0.00      0.00
  TU79                 0.00      0.00      0.00
  TU8                  0.00      0.00      0.00
  TU80                 0.00      0.00      0.00
  TU81                 0.00      0.00      0.00
  TU82                 0.00      0.00      0.00
  TU83                 0.00      0.00      0.00
  TU84                 0.00      0.00      0.00
  TU85                 0.00      0.00      0.00
  TU86                 0.00      0.00      0.00
  TU87                 0.00      0.00      0.00
  TU88                 0.00      0.00      0.00
  TU89                 0.00      0.00      0.00
  TU9                  0.00      0.00      0.00
  TU90                 0.00      0.00      0.00
  TU91                -0.00      0.00      0.00
  TU92                -0.00      0.00      0.00
  TU93                 0.00      0.00      0.00
  TU94                 0.00      0.00      0.00
  TU95                 0.00      0.00      0.00
  TU96                 0.00      0.00      0.00
  TU97                 0.00      0.00      0.00
  TU98                 0.00      0.00      0.00
  TU99                 0.00      0.00      0.00
  TU4000               0.00      0.00      0.00
   
  Analysis ended Fri Dec  1 09:49:55 2023
