  Page 1                                    Fri Dec  1 09:51:19 2023

  ******************************************************************
  *                           E P A N E T                          *
  *                   Hydraulic and Water Quality                  *
  *                   Analysis for Pipe Networks                   *
  *                         Version 2.2                            *
  ******************************************************************
  
  Analysis begun Fri Dec  1 09:51:19 2023

   
  Node Results:
  ----------------------------------------------
                     Demand      Head  Pressure
  Node                 m3/h         m         m
  ----------------------------------------------
  3661                 0.00    428.98     50.84
  482                  0.00    428.67     82.67
  661                  0.00    428.93     98.93
  6610                 0.00    428.78      3.66
  6611                 0.00    428.91     93.91
  6612                 0.00    428.87     66.50
  6613                 0.00    428.91     73.91
  6615                 0.00    428.97     89.97
  6616                 0.00    428.96     67.96
  6617                 0.00    428.91     85.91
  6618                 0.00    428.96     80.96
  662                  0.00    428.93    100.93
  6620                 0.00    428.96    120.96
  6621                 0.00    428.96    100.96
  6622                 0.00    428.96     91.96
  6623                 0.00    428.96     77.96
  6624                 0.00    428.96     76.96
  6625                 0.00    428.96    116.96
  6626                 0.00    428.96    107.96
  6627                 0.00    428.93    107.93
  6628                 0.00    428.82     89.82
  6629                 0.00    428.82     88.82
  663                  0.00    428.91     87.91
  6630                 0.00    428.82      3.70
  6632                 0.00    428.85     88.85
  6633                 0.00    428.97     66.33
  6634                 0.00    428.97     57.97
  6635                 0.00    428.96     76.96
  6636                 0.00    428.96     72.96
  6637                 0.00    428.94     61.94
  6639                 0.00    428.82     68.82
  664                  0.00    428.91     80.91
  6640                 0.00    428.78     68.78
  6641                 0.00    428.85     70.17
  6642                 0.00    428.85     72.85
  6643                 0.00    428.88     76.88
  6644                 0.00    428.89     76.89
  6645                 0.00    428.89     78.89
  6646                 0.00    428.90     81.88
  6648                 0.00    428.90     82.89
  6649                 0.00    428.91     89.91
  665                  0.00    428.91     83.91
  666                  0.00    428.82     88.82
  6665                 0.00    428.91     63.77
  6666                 0.00    428.93     61.27
  667                  0.00    428.89     76.89
  668                  0.00    428.93     98.93
  669                  0.00    428.82     83.82
  1                   75.00    428.95     98.95
  10                  74.00    428.41     76.41
  100                  0.00    428.85     73.85
  100B                77.00    428.36     70.36
  101                  0.00    428.91     75.91
  103                  0.00    428.91     89.91
  104                  0.00    428.91     89.91
  105                  0.00    428.91     73.91
  106                  0.00    428.91     73.91
  107                  0.00    428.97     89.97
  108                  0.00    428.97     93.41
  109                  0.00    428.97     91.97
  11B                  0.00    428.91     85.91
  110                  0.00    428.95     82.95
  111                 57.00    428.93     90.95
  112                  0.00    428.94     86.94
  113                  0.00    428.92    105.92
  114                  0.00    428.91     80.91
  115                  0.00    428.91     82.91
  116                  0.00    428.91     83.91
  117                  0.00    428.91     85.91
  118                  0.00    428.91     89.91
  119                  0.00    428.91    106.10
  12                   0.00    428.91     98.57
  121                  0.00    428.91     78.91
  122                  0.00    428.91     81.91
  123                  0.00    428.91     82.91
  125                  0.00    428.91     77.91
  126                 52.00    428.84     80.84
  127                  0.00    428.84     85.51
  128                  0.00    428.96     66.96
  129                  0.00    428.95     72.95
  130                  0.00    428.94     87.86
  130B                 0.00    428.94     75.94
  132                 49.00    427.67     94.67
  134                  0.00    428.93    107.93
  135                  0.00    428.93    112.93
  137                  0.00    428.93    119.93
  139                  0.00    428.93     68.93
  14                   0.00    428.91     90.91
  140                  0.00    428.93     77.93
  141                  0.00    428.93     76.93
  142                  0.00    428.93     67.93
  143                  0.00    427.67     86.70
  144                  0.00    428.95     69.95
  146                  0.00    428.96     82.96
  147                  0.00    428.96    107.96
  148                  0.00    428.96     95.96
  149                  0.00    428.96    115.75
  15                   0.00    428.91     93.91
  150                  0.00    428.96    120.89
  151                  0.00    428.96    123.72
  152                  0.00    428.96    118.94
  153                  0.00    428.96    118.96
  154                  0.00    428.96    103.96
  157                  0.00    428.96    125.96
  158A                 0.00    428.96    107.96
  158B                 0.00    428.96    107.96
  16B                  0.00    428.91     94.91
  160                  0.00    428.94     61.94
  162                  0.00    428.93     60.93
  163                  0.00    428.93     54.93
  164                  0.00    428.92     69.26
  165                  0.00    428.91     67.61
  166                  0.00    428.91     67.90
  167                  0.00    428.91     58.27
  169                 45.00    428.85     62.35
  17A                  0.00    428.91     93.91
  170                  0.00    428.95     69.95
  17B                  0.00    428.91     93.91
  171                  0.00    428.96     76.96
  172                  0.00    428.96     88.96
  18B                  0.00    428.91    103.91
  19                   0.00    428.97     70.97
  2                    0.00    428.93    102.93
  20                   0.00    428.98     64.98
  2002                 0.00    428.82     78.82
  2003                 0.00    428.82     78.82
  21                   0.00    428.98     66.25
  22                   0.00    428.98     67.38
  222                  0.00    428.97     78.97
  24                   0.00    428.97     84.97
  25                   0.00    428.97     83.97
  26                   0.00    428.96     80.96
  27                   0.00    428.96     78.96
  28                   0.00    428.96     80.96
  29                   0.00    428.96     72.96
  3                    0.00    428.92     88.57
  30                   0.00    428.96     67.96
  3002                 0.00    428.98     42.98
  3004                 0.00    428.98     42.98
  3005                 0.00    428.98     42.98
  3008                 0.00    428.98     43.98
  3012                 0.00    428.98     58.25
  3013                 0.00    428.98     64.05
  3016                 0.00    428.98     63.98
  3017                 0.00    428.98     46.98
  3018                 0.00    428.97     51.97
  3019                 0.00    428.98     59.59
  3020                 0.00    428.98     60.87
  3024                 0.00    428.98     64.04
  31                   0.00    428.96     71.17
  3152                 0.00    428.98     62.78
  32                   0.00    428.96     70.96
  34                   0.00    428.96     77.94
  35                   0.00    428.96     91.96
  36                   0.00    428.96    100.96
  39                   0.00    428.96    115.96
  41                   0.00    428.96    121.96
  46                   0.00    428.97     52.97
  47                   0.00    428.91     70.73
  48                   0.00    428.56     84.56
  49                   0.00    427.71     75.71
  5                    0.00    428.92     81.92
  52                  82.00    427.68     76.68
  53                   0.00    428.97     72.97
  54                   0.00    428.96     83.96
  55                   0.00    428.95     98.95
  56                   0.00    428.95     94.95
  58                   0.00    428.95     95.95
  59                   0.00    428.95     99.95
  6                    0.00    428.89     76.89
  60                   0.00    426.78     81.78
  61                  76.00    425.75     86.75
  62                   0.00    428.89     74.89
  64                   0.00    428.90     97.90
  65                  81.00    428.52     88.52
  66                   0.00    428.85     89.85
  67                 111.00    428.82     96.82
  68                   0.00    428.82     89.82
  69                   0.00    428.82     77.82
  7                    0.00    428.91     75.91
  70                   0.00    428.82     88.82
  71                   0.00    428.82     91.82
  72                   0.00    428.89     72.89
  73                   0.00    428.88     73.88
  77                   0.00    428.89     72.89
  78                   0.00    428.89     88.75
  79                  59.00    428.91     75.91
  8                    0.00    428.89     78.89
  80                  53.00    428.90     79.90
  81                   0.00    428.90     69.90
  82                   0.00    428.90     70.90
  85                   0.00    428.82     89.82
  86                   0.00    428.82     91.82
  87                   0.00    428.87     68.87
  88                   0.00    428.87     75.87
  89                   0.00    428.86     61.86
  90                   0.00    428.85     72.85
  91                   0.00    428.82     56.82
  92                   0.00    428.78     68.78
  91B                  0.00    428.78     68.78
  94                   0.00    428.91     89.91
  95                   0.00    428.91     85.91
  97                   0.00    428.91     97.91
  99                   0.00    428.86     78.86
  74                   0.00    428.88     70.17
  1074                 0.00    428.88     70.88
  11A                  0.00    428.91     85.91
  1011                 0.00    428.91     85.91
  0                 -891.00    429.00      0.00  Reservoir
   
   
  Link Results:
  ----------------------------------------------
                       Flow  Velocity  Headloss
  Link                 m3/h       m/s    /1000m
  ----------------------------------------------
  TU1                 -0.00      0.00      0.00
  TU10                 0.00      0.00      0.00
  TU100              111.00      0.25      0.14
  TU101              111.00      0.16      0.05
  TU102               81.00      1.44     12.13
  TU103              192.00      0.27      0.13
  TU104              192.00      0.27      0.13
  TU105              263.00      0.11      0.01
  TU106              263.00      0.11      0.01
  TU107                0.00      0.00      0.00
  TU108              339.00      0.15      0.02
  TU109              531.00      0.23      0.05
  TU11                -0.00      0.00      0.00
  TU110              531.00      0.23      0.05
  TU111                0.00      0.00      0.00
  TU112               -0.00      0.00      0.00
  TU113                0.00      0.00      0.00
  TU114                0.00      0.00      0.00
  TU115              606.00      0.21      0.04
  TU116              606.00      0.21      0.04
  TU117               -0.00      0.00      0.00
  TU118                0.00      0.00      0.00
  TU119              606.00      0.21      0.04
  TU12                 0.00      0.00      0.00
  TU120              606.00      0.21      0.04
  TU121               -0.00      0.00      0.00
  TU122                0.00      0.00      0.00
  TU123               -0.00      0.00      0.00
  TU124               82.00      0.94      4.22
  TU125               82.00      0.60      1.44
  TU126               82.00      0.38      0.46
  TU127               82.00      0.38      0.46
  TU128                0.00      0.00      0.00
  TU129                0.00      0.00      0.00
  TU13                -0.00      0.00      0.00
  TU130               -0.00      0.00      0.00
  TU131               -0.00      0.00      0.00
  TU132               45.00      0.20      0.14
  TU133               45.00      0.20      0.14
  TU134               -0.00      0.00      0.00
  TU135               45.00      0.10      0.03
  TU136               45.00      0.10      0.03
  TU137              127.00      0.18      0.06
  TU138              127.00      0.18      0.06
  TU139              127.00      0.12      0.03
  TU14                -0.00      0.00      0.00
  TU140              127.00      0.12      0.03
  TU141                0.00      0.00      0.00
  TU142                0.00      0.00      0.00
  TU143               -0.00      0.00      0.00
  TU144               77.00      0.83      3.29
  TU145               -0.00      0.00      0.00
  TU146               77.00      0.34      0.37
  TU147               77.00      0.21      0.12
  TU148               -0.00      0.00      0.00
  TU149               -0.00      0.00      0.00
  TU15                -0.00      0.00      0.00
  TU150               -0.00      0.00      0.00
  TU151               77.00      0.11      0.02
  TU152                0.00      0.00      0.00
  TU15301             77.00      0.11      0.02
  TU15302             77.00      0.11      0.02
  TU1074               0.00      0.00      0.00
  TU154               77.00      0.08      0.01
  TU155               74.00      1.24      8.97
  TU156              151.00      0.15      0.03
  TU157              151.00      0.15      0.04
  TU158                0.00      0.00      0.00
  TU159              151.00      0.15      0.03
  TU16               891.00      0.16      0.01
  TU160                0.00      0.00      0.00
  TU161              151.00      0.15      0.03
  TU162              112.00      0.08      0.01
  TU163               53.00      0.04      0.00
  TU164              112.00      0.08      0.01
  TU166               -0.00      0.00      0.00
  TU167               -0.00      0.00      0.00
  TU168                0.00      0.00      0.00
  TU169                0.00      0.00      0.00
  TU17                -0.00      0.00      0.00
  TU170               53.00      0.24      0.21
  TU171               -0.00      0.00      0.00
  TU17201             -0.00      0.00      0.00
  TU17202              0.00      0.00      0.00
  TU1011A             -0.00      0.00      0.00
  TU173               -0.00      0.00      0.00
  TU174               -0.00      0.00      0.00
  TU175               -0.00      0.00      0.00
  TU176               -0.00      0.00      0.00
  TU177               -0.00      0.00      0.00
  TU178               -0.00      0.00      0.00
  TU179                0.00      0.00      0.00
  TU18                 0.00      0.00      0.00
  TU180                0.00      0.00      0.00
  TU181                0.00      0.00      0.00
  TU182                0.00      0.00      0.00
  TU183               76.00      0.87      3.68
  TU184                0.00      0.00      0.00
  TU185               52.00      0.11      0.04
  TU186               45.00      0.12      0.04
  TU187               45.00      0.10      0.03
  TU188              158.00      0.11      0.02
  TU189              158.00      0.11      0.02
  TU19                 0.00      0.00      0.00
  TU190               -0.00      0.00      0.00
  TU191               76.00      1.35     10.79
  TU192                0.00      0.00      0.00
  TU193                0.00      0.00      0.00
  TU194               -0.00      0.00      0.00
  TU195                0.00      0.00      0.00
  TU196                0.00      0.00      0.00
  TU197                0.00      0.00      0.00
  TU198                0.00      0.00      0.00
  TU199                0.00      0.00      0.00
  TU2                  0.00      0.00      0.00
  TU20                 0.00      0.00      0.00
  TU200               -0.00      0.00      0.00
  TU201                0.00      0.00      0.00
  TU203                0.00      0.00      0.00
  TU204              158.00      0.07      0.01
  TU205              158.00      0.07      0.01
  TU21                -0.00      0.00      0.00
  TU22               158.00      0.09      0.01
  TU23               158.00      0.09      0.01
  TU24               158.00      0.09      0.01
  TU25               158.00      0.09      0.01
  TU26                49.00      0.05      0.00
  TU27                49.00      0.05      0.00
  TU28                49.00      0.05      0.00
  TU29                49.00      0.05      0.00
  TU3                  0.00      0.00      0.00
  TU30                 0.00      0.00      0.00
  TU31                -0.00      0.00      0.00
  TU32                 0.00      0.00      0.00
  TU33                 0.00      0.00      0.00
  TU34                 0.00      0.00      0.00
  TU35                 0.00      0.00      0.00
  TU36                 0.00      0.00      0.00
  TU37                -0.00      0.00      0.00
  TU38                 0.00      0.00      0.00
  TU39                -0.00      0.00      0.00
  TU4                 77.00      0.11      0.02
  TU40                52.00      0.38      0.63
  TU41                52.00      0.11      0.04
  TU42                 0.00      0.00      0.00
  TU43               109.00      0.15      0.05
  TU44               109.00      0.15      0.05
  TU45               109.00      0.15      0.05
  TU46               109.00      0.15      0.05
  TU47                -0.00      0.00      0.00
  TU48                 0.00      0.00      0.00
  TU49                 0.00      0.00      0.00
  TU5                 77.00      0.11      0.02
  TU50                 0.00      0.00      0.00
  TU51                 0.00      0.00      0.00
  TU52                 0.00      0.00      0.00
  TU53                 0.00      0.00      0.00
  TU54                 0.00      0.00      0.00
  TU55                 0.00      0.00      0.00
  TU56                -0.00      0.00      0.00
  TU57                 0.00      0.00      0.00
  TU58                 0.00      0.00      0.00
  TU59                 0.00      0.00      0.00
  TU6                 52.00      0.07      0.01
  TU60                -0.00      0.00      0.00
  TU61                 0.00      0.00      0.00
  TU62                -0.00      0.00      0.00
  TU63                 0.00      0.00      0.00
  TU64                 0.00      0.00      0.00
  TU65                 0.00      0.00      0.00
  TU66                 0.00      0.00      0.00
  TU67                 0.00      0.00      0.00
  TU68                 0.00      0.00      0.00
  TU69                 0.00      0.00      0.00
  TU7                  0.00      0.00      0.00
  TU70                 0.00      0.00      0.00
  TU71                 0.00      0.00      0.00
  TU72                49.00      0.11      0.03
  TU73                49.00      0.11      0.03
  TU74                49.00      0.11      0.03
  TU75                49.00      0.11      0.03
  TU76                49.00      0.11      0.03
  TU77                49.00      0.11      0.03
  TU78                 0.00      0.00      0.00
  TU79                 0.00      0.00      0.00
  TU8                  0.00      0.00      0.00
  TU80                 0.00      0.00      0.00
  TU81                -0.00      0.00      0.00
  TU82                 0.00      0.00      0.00
  TU83                49.00      0.64      2.34
  TU84                 0.00      0.00      0.00
  TU85                 0.00      0.00      0.00
  TU86                 0.00      0.00      0.00
  TU87                 0.00      0.00      0.00
  TU88                49.00      0.11      0.03
  TU89                 0.00      0.00      0.00
  TU9                  0.00      0.00      0.00
  TU90                 0.00      0.00      0.00
  TU91                -0.00      0.00      0.00
  TU92                -0.00      0.00      0.00
  TU93                 0.00      0.00      0.00
  TU94                 0.00      0.00      0.00
  TU95                 0.00      0.00      0.00
  TU96                 0.00      0.00      0.00
  TU97                 0.00      0.00      0.00
  TU98                 0.00      0.00      0.00
  TU99                 0.00      0.00      0.00
  TU4000               0.00      0.00      0.00
   
  Analysis ended Fri Dec  1 09:51:20 2023
