  Page 1                                    Fri Dec  1 10:05:46 2023

  ******************************************************************
  *                           E P A N E T                          *
  *                   Hydraulic and Water Quality                  *
  *                   Analysis for Pipe Networks                   *
  *                         Version 2.2                            *
  ******************************************************************
  
  Analysis begun Fri Dec  1 10:05:46 2023

   
  Node Results:
  ----------------------------------------------
                     Demand      Head  Pressure
  Node                 m3/h         m         m
  ----------------------------------------------
  3661                 0.00    428.93     50.79
  482                  0.00    428.93     82.93
  661                  0.00    428.84     98.84
  6610                 0.00    426.35      1.23
  6611                 0.00    427.32     92.32
  6612                 0.00    427.37     65.00
  6613                 0.00    425.39     70.39
  6615                 0.00    428.92     89.92
  6616                 0.00    428.88     67.88
  6617                 0.00    428.91     85.91
  6618                 0.00    428.91     80.91
  662                  0.00    428.59    100.59
  6620                 0.00    428.85    120.85
  6621                 0.00    428.85    100.85
  6622                 0.00    428.85     91.85
  6623                 0.00    428.85     77.85
  6624                 0.00    428.85     76.85
  6625                 0.00    428.71    116.71
  6626                 0.00    428.79    107.79
  6627                 0.00    428.47    107.47
  6628                 0.00    428.57     89.57
  6629                 0.00    428.57     88.57
  663                  0.00    428.28     87.28
  6630                 0.00    428.57      3.45
  6632                 0.00    428.58     88.58
  6633                 0.00    428.86     66.22
  6634                 0.00    428.89     57.89
  6635                 0.00    428.93     76.93
  6636                 0.00    428.93     72.93
  6637                 0.00    428.93     61.93
  6639                 0.00    426.88     66.88
  664                  0.00    428.02     80.02
  6640                 0.00    426.68     66.68
  6641                 0.00    427.03     68.35
  6642                 0.00    426.92     70.92
  6643                 0.00    427.87     75.87
  6644                 0.00    428.01     76.01
  6645                 0.00    428.05     78.05
  6646                 0.00    425.96     78.94
  6648                 0.00    426.24     80.23
  6649                 0.00    427.81     88.81
  665                  0.00    427.91     82.91
  666                  0.00    428.57     88.57
  6665                 0.00    428.93     63.79
  6666                 0.00    428.93     61.27
  667                  0.00    428.00     76.00
  668                  0.00    428.84     98.84
  669                  0.00    428.57     83.57
  1                   66.00    428.73     98.73
  10                   0.00    427.87     75.87
  100                157.00    426.87     71.87
  100B                74.00    426.28     68.28
  101                116.00    425.00     72.00
  103                  0.00    427.37     88.37
  104                  0.00    427.37     88.37
  105                101.00    425.36     70.36
  106                  0.00    425.39     70.39
  107                  0.00    428.92     89.92
  108                  0.00    428.92     93.36
  109                  0.00    428.92     91.92
  11B                 95.00    427.85     84.85
  110                  0.00    428.91     82.91
  111                  0.00    428.91     90.93
  112                  0.00    428.91     86.91
  113                  0.00    428.91    105.91
  114                  0.00    428.91     80.91
  115                  0.00    428.91     82.91
  116                  0.00    428.91     83.91
  117                  0.00    428.91     85.91
  118                  0.00    428.91     89.91
  119                  0.00    428.91    106.10
  12                  83.00    427.64     97.30
  121                  0.00    428.91     78.91
  122                  0.00    428.91     81.91
  123                  0.00    428.91     82.91
  125                  0.00    428.91     77.91
  126                  0.00    428.91     80.91
  127                  0.00    428.91     85.58
  128                  0.00    428.88     66.88
  129                  0.00    428.86     72.86
  130                  0.00    428.85     87.77
  130B                 0.00    428.85     75.85
  132                  0.00    428.84     95.84
  134                 61.00    428.17    107.17
  135                  0.00    428.47    112.47
  137                  0.00    428.47    119.47
  139                  0.00    428.84     68.84
  14                  45.00    427.37     89.37
  140                  0.00    428.84     77.84
  141                  0.00    428.84     76.84
  142                  0.00    428.84     67.84
  143                  0.00    428.84     87.87
  144                  0.00    428.87     69.87
  146                  0.00    428.82     82.82
  147                  0.00    428.79    107.79
  148                  0.00    428.82     95.82
  149                  0.00    428.71    115.50
  15                 137.00    427.05     92.05
  150                  0.00    428.62    120.55
  151                  0.00    428.43    123.19
  152                 59.00    426.97    116.95
  153                  0.00    427.47    117.47
  154                  0.00    428.85    103.85
  157                  0.00    428.85    125.85
  158A                 0.00    428.85    107.85
  158B                 0.00    428.85    107.85
  16B                  0.00    427.43     93.43
  160                 50.00    428.93     61.93
  162                  0.00    428.93     60.93
  163                  0.00    428.93     54.93
  164                  0.00    428.93     69.27
  165                  0.00    428.93     67.63
  166                  0.00    428.93     67.92
  167                  0.00    428.93     58.29
  169                  0.00    428.93     62.43
  17A                  0.00    427.32     92.32
  170                  0.00    428.93     69.93
  17B                  0.00    427.32     92.32
  171                  0.00    428.93     76.93
  172                  0.00    428.93     88.93
  18B                  0.00    427.32    102.32
  19                   0.00    428.86     70.86
  2                    0.00    428.62    102.62
  20                   0.00    428.93     64.93
  2002                 0.00    428.57     78.57
  2003                 0.00    428.57     78.57
  21                   0.00    428.93     66.20
  22                   0.00    428.93     67.33
  222                  0.00    428.93     78.93
  24                   0.00    428.92     84.92
  25                   0.00    428.92     83.92
  26                   0.00    428.91     80.91
  27                   0.00    428.91     78.91
  28                   0.00    428.91     80.91
  29                   0.00    428.88     72.88
  3                    0.00    428.46     88.11
  30                   0.00    428.88     67.88
  3002                 0.00    428.93     42.93
  3004                 0.00    428.93     42.93
  3005                 0.00    428.93     42.93
  3008                 0.00    428.93     43.93
  3012                 0.00    428.93     58.20
  3013                 0.00    428.93     64.00
  3016                 0.00    428.93     63.93
  3017                 0.00    428.94     46.94
  3018                 0.00    428.94     51.94
  3019                 0.00    428.93     59.54
  3020                 0.00    428.93     60.82
  3024                 0.00    428.93     63.99
  31                  55.00    428.85     71.06
  3152                 0.00    428.93     62.73
  32                   0.00    428.86     70.86
  34                   0.00    428.85     77.83
  35                   0.00    428.85     91.85
  36                   0.00    428.85    100.85
  39                   0.00    428.85    115.85
  41                   0.00    428.85    121.85
  46                   0.00    428.94     52.94
  47                   0.00    428.93     70.75
  48                   0.00    428.93     84.93
  49                   0.00    428.93     76.93
  5                    0.00    428.37     81.37
  52                   0.00    428.93     77.93
  53                   0.00    428.89     72.89
  54                   0.00    428.81     83.81
  55                   0.00    428.73     98.73
  56                   0.00    428.73     94.73
  58                   0.00    428.73     95.73
  59                   0.00    428.73     99.73
  6                    0.00    428.01     76.01
  60                   0.00    428.46     83.46
  61                   0.00    428.46     89.46
  62                   0.00    428.00     74.00
  64                   0.00    428.59     97.59
  65                   0.00    428.58     88.58
  66                   0.00    428.58     89.58
  67                  61.00    428.57     96.57
  68                   0.00    428.57     89.57
  69                   0.00    428.57     77.57
  7                    0.00    428.14     75.14
  70                   0.00    428.57     88.57
  71                   0.00    428.57     91.57
  72                   0.00    428.00     72.00
  73                   0.00    427.84     72.84
  77                   0.00    428.00     72.00
  78                   0.00    428.00     87.86
  79                   0.00    428.14     75.14
  8                    0.00    428.05     78.05
  80                  94.00    427.89     78.89
  81                   0.00    426.24     67.24
  82                 131.00    425.17     67.17
  85                   0.00    428.57     89.57
  86                   0.00    428.57     91.57
  87                 122.00    427.48     67.48
  88                   0.00    427.37     74.37
  89                   0.00    427.14     60.14
  90                   0.00    426.92     70.92
  91                   0.00    426.88     54.88
  92                   0.00    426.35     66.35
  91B                117.00    426.20     66.20
  94                   0.00    427.81     88.81
  95                   0.00    427.57     84.57
  97                   0.00    427.42     96.42
  99                 145.00    424.51     74.51
  74                   0.00    427.81     69.10
  1074                 0.00    427.81     69.81
  11A                 76.00    427.35     84.35
  1011                 0.00    427.42     84.42
  0                -1845.00    429.00      0.00  Reservoir
   
   
  Link Results:
  ----------------------------------------------
                       Flow  Velocity  Headloss
  Link                 m3/h       m/s    /1000m
  ----------------------------------------------
  TU1                 -0.00      0.00      0.00
  TU10               101.00      1.09      5.40
  TU100               61.00      0.13      0.05
  TU101               61.00      0.09      0.02
  TU102                0.00      0.00      0.00
  TU103               61.00      0.09      0.02
  TU104               61.00      0.09      0.02
  TU105             1493.00      0.65      0.31
  TU106             1493.00      0.65      0.31
  TU107                0.00      0.00      0.00
  TU108             1493.00      0.65      0.31
  TU109             1554.00      0.68      0.34
  TU11               217.00      0.99      2.72
  TU110             1554.00      0.68      0.34
  TU111                0.00      0.00      0.00
  TU112               -0.00      0.00      0.00
  TU113                0.00      0.00      0.00
  TU114                0.00      0.00      0.00
  TU115             1620.00      0.57      0.22
  TU116             1620.00      0.57      0.22
  TU117                0.00      0.00      0.00
  TU118                0.00      0.00      0.00
  TU119             1620.00      0.57      0.22
  TU12                 0.00      0.00      0.00
  TU120             1620.00      0.57      0.22
  TU121                0.00      0.00      0.00
  TU122                0.00      0.00      0.00
  TU123               -0.00      0.00      0.00
  TU124                0.00      0.00      0.00
  TU125               -0.00      0.00      0.00
  TU126               -0.00      0.00      0.00
  TU127               -0.00      0.00      0.00
  TU128                0.00      0.00      0.00
  TU129                0.00      0.00      0.00
  TU13                 0.00      0.00      0.00
  TU130               -0.00      0.00      0.00
  TU131               -0.00      0.00      0.00
  TU132                0.00      0.00      0.00
  TU133               -0.00      0.00      0.00
  TU134              117.00      1.26      7.06
  TU135               -0.00      0.00      0.00
  TU136               50.00      0.11      0.03
  TU137               50.00      0.07      0.01
  TU138               50.00      0.07      0.01
  TU139               50.00      0.05      0.00
  TU14               262.00      0.58      0.66
  TU140               50.00      0.05      0.00
  TU141                0.00      0.00      0.00
  TU142                0.00      0.00      0.00
  TU143               -0.00      0.00      0.00
  TU144               74.00      0.80      3.06
  TU145              117.00      0.81      2.40
  TU146              191.00      0.83      1.91
  TU147              191.00      0.52      0.60
  TU148                0.00      0.00      0.00
  TU149              157.00      1.09      4.11
  TU15                -0.00      0.00      0.00
  TU150              157.00      1.09      4.11
  TU151              348.00      0.49      0.38
  TU152              145.00      1.66     12.00
  TU15301            615.00      0.87      1.06
  TU15302            615.00      0.87      1.06
  TU1074               0.00      0.00      0.00
  TU154              615.00      0.60      0.44
  TU155                0.00      0.00      0.00
  TU156              615.00      0.60      0.44
  TU157              615.00      0.60      0.44
  TU158                0.00      0.00      0.00
  TU159              615.00      0.60      0.44
  TU16              1845.00      0.33      0.05
  TU160                0.00      0.00      0.00
  TU161              615.00      0.60      0.44
  TU162              878.00      0.63      0.40
  TU163              878.00      0.63      0.40
  TU164              878.00      0.63      0.40
  TU166               -0.00      0.00      0.00
  TU167              131.00      1.72     14.05
  TU168              131.00      1.72     14.05
  TU169              131.00      1.10      4.74
  TU17                -0.00      0.00      0.00
  TU170              225.00      1.03      2.91
  TU171              653.00      0.47      0.23
  TU17201             76.00      1.00      5.18
  TU17202              0.00      0.00      0.00
  TU1011A             76.00      1.00      5.18
  TU173               76.00      0.56      1.25
  TU174               -0.00      0.00      0.00
  TU175               76.00      0.35      0.41
  TU176              482.00      0.47      0.28
  TU177              577.00      0.57      0.39
  TU178              399.00      0.39      0.20
  TU179              137.00      0.39      0.37
  TU18                 0.00      0.00      0.00
  TU180                0.00      0.00      0.00
  TU181                0.00      0.00      0.00
  TU182                0.00      0.00      0.00
  TU183                0.00      0.00      0.00
  TU184                0.00      0.00      0.00
  TU185               -0.00      0.00      0.00
  TU186               -0.00      0.00      0.00
  TU187               -0.00      0.00      0.00
  TU188              175.00      0.13      0.02
  TU189              175.00      0.13      0.02
  TU19                 0.00      0.00      0.00
  TU190               59.00      0.78      3.27
  TU191                0.00      0.00      0.00
  TU192                0.00      0.00      0.00
  TU193                0.00      0.00      0.00
  TU194               -0.00      0.00      0.00
  TU195                0.00      0.00      0.00
  TU196                0.00      0.00      0.00
  TU197               -0.00      0.00      0.00
  TU198                0.00      0.00      0.00
  TU199                0.00      0.00      0.00
  TU2                137.00      1.56     10.81
  TU20                 0.00      0.00      0.00
  TU200               -0.00      0.00      0.00
  TU201                0.00      0.00      0.00
  TU203                0.00      0.00      0.00
  TU204              175.00      0.08      0.01
  TU205              175.00      0.08      0.01
  TU21                59.00      0.50      1.11
  TU22               175.00      0.10      0.01
  TU23               175.00      0.10      0.01
  TU24               175.00      0.10      0.01
  TU25               175.00      0.10      0.01
  TU26               175.00      0.17      0.05
  TU27               175.00      0.17      0.04
  TU28               175.00      0.17      0.05
  TU29               175.00      0.17      0.05
  TU3                  0.00      0.00      0.00
  TU30                 0.00      0.00      0.00
  TU31                -0.00      0.00      0.00
  TU32                 0.00      0.00      0.00
  TU33                 0.00      0.00      0.00
  TU34                 0.00      0.00      0.00
  TU35                 0.00      0.00      0.00
  TU36                 0.00      0.00      0.00
  TU37                 0.00      0.00      0.00
  TU38                 0.00      0.00      0.00
  TU39                -0.00      0.00      0.00
  TU4                493.00      0.70      0.71
  TU40                -0.00      0.00      0.00
  TU41                -0.00      0.00      0.00
  TU42                 0.00      0.00      0.00
  TU43                -0.00      0.00      0.00
  TU44                -0.00      0.00      0.00
  TU45                -0.00      0.00      0.00
  TU46                -0.00      0.00      0.00
  TU47                -0.00      0.00      0.00
  TU48                 0.00      0.00      0.00
  TU49                 0.00      0.00      0.00
  TU5                493.00      0.70      0.71
  TU50                 0.00      0.00      0.00
  TU51                 0.00      0.00      0.00
  TU52                 0.00      0.00      0.00
  TU53                 0.00      0.00      0.00
  TU54                 0.00      0.00      0.00
  TU55                 0.00      0.00      0.00
  TU56                -0.00      0.00      0.00
  TU57                 0.00      0.00      0.00
  TU58                 0.00      0.00      0.00
  TU59                 0.00      0.00      0.00
  TU6                 -0.00      0.00      0.00
  TU60                59.00      1.22      9.71
  TU61                 0.00      0.00      0.00
  TU62                59.00      0.31      0.37
  TU63                 0.00      0.00      0.00
  TU64                59.00      0.31      0.37
  TU65                 0.00      0.00      0.00
  TU66                59.00      0.20      0.12
  TU67                59.00      0.17      0.08
  TU68                59.00      0.17      0.08
  TU69                59.00      0.08      0.02
  TU7                  0.00      0.00      0.00
  TU70               114.00      0.16      0.05
  TU71               114.00      0.16      0.05
  TU72                61.00      0.13      0.05
  TU73                61.00      0.13      0.05
  TU74                61.00      0.13      0.05
  TU75                61.00      0.13      0.05
  TU76                61.00      0.13      0.05
  TU77                61.00      0.13      0.05
  TU78                 0.00      0.00      0.00
  TU79                 0.00      0.00      0.00
  TU8                116.00      1.25      6.95
  TU80                61.00      1.26     10.33
  TU81                61.00      0.51      1.18
  TU82                 0.00      0.00      0.00
  TU83                 0.00      0.00      0.00
  TU84                 0.00      0.00      0.00
  TU85                 0.00      0.00      0.00
  TU86                 0.00      0.00      0.00
  TU87                 0.00      0.00      0.00
  TU88                 0.00      0.00      0.00
  TU89                 0.00      0.00      0.00
  TU9                  0.00      0.00      0.00
  TU90                 0.00      0.00      0.00
  TU91                -0.00      0.00      0.00
  TU92                -0.00      0.00      0.00
  TU93                 0.00      0.00      0.00
  TU94                 0.00      0.00      0.00
  TU95                 0.00      0.00      0.00
  TU96                 0.00      0.00      0.00
  TU97                 0.00      0.00      0.00
  TU98                 0.00      0.00      0.00
  TU99                 0.00      0.00      0.00
  TU4000               0.00      0.00      0.00
   
  Analysis ended Fri Dec  1 10:05:46 2023
