  Page 1                                    Fri Dec  1 09:58:28 2023

  ******************************************************************
  *                           E P A N E T                          *
  *                   Hydraulic and Water Quality                  *
  *                   Analysis for Pipe Networks                   *
  *                         Version 2.2                            *
  ******************************************************************
  
  Analysis begun Fri Dec  1 09:58:28 2023

   
  Node Results:
  ----------------------------------------------
                     Demand      Head  Pressure
  Node                 m3/h         m         m
  ----------------------------------------------
  3661                 0.00    428.80     50.66
  482                  0.00    428.85     82.85
  661                  0.00    428.19     98.19
  6610                 0.00    428.47      3.35
  6611                 0.00    428.59     93.59
  6612                 0.00    428.47     66.10
  6613                 0.00    428.58     73.58
  6615                 0.00    428.47     89.47
  6616                 0.00    428.45     67.45
  6617                 0.00    428.09     85.09
  6618                 0.00    428.60     80.60
  662                  0.00    428.74    100.74
  6620                 0.00    428.39    120.39
  6621                 0.00    428.39    100.39
  6622                 0.00    428.39     91.39
  6623                 0.00    428.39     77.39
  6624                 0.00    428.40     76.40
  6625                 0.00    428.15    116.15
  6626                 0.00    428.29    107.29
  6627                 0.00    427.00    106.00
  6628                 0.00    427.98     88.98
  6629                 0.00    428.32     88.32
  663                  0.00    428.66     87.66
  6630                 0.00    428.55      3.43
  6632                 0.00    428.67     88.67
  6633                 0.00    428.86     66.22
  6634                 0.00    428.88     57.88
  6635                 0.00    428.87     76.87
  6636                 0.00    428.87     72.87
  6637                 0.00    428.85     61.85
  6639                 0.00    428.47     68.47
  664                  0.00    428.64     80.64
  6640                 0.00    428.47     68.47
  6641                 0.00    428.47     69.79
  6642                 0.00    428.47     72.47
  6643                 0.00    428.48     76.48
  6644                 0.00    428.52     76.52
  6645                 0.00    428.54     78.54
  6646                 0.00    427.60     80.58
  6648                 0.00    427.75     81.74
  6649                 0.00    428.63     89.63
  665                  0.00    428.63     83.63
  666                  0.00    428.55     88.55
  6665                 0.00    428.63     63.49
  6666                 0.00    428.75     61.09
  667                  0.00    428.52     76.52
  668                  0.00    428.19     98.19
  669                  0.00    428.25     83.25
  1                   72.00    428.78     98.78
  10                  72.00    428.03     76.03
  100                  0.00    428.47     73.47
  100B                 0.00    428.47     70.47
  101                  0.00    428.58     75.58
  103                  0.00    428.58     89.58
  104                  0.00    428.58     89.58
  105                  0.00    428.58     73.58
  106                  0.00    428.58     73.58
  107                  0.00    428.47     89.47
  108                 68.00    427.37     91.81
  109                  0.00    428.22     91.22
  11B                 52.00    428.62     85.62
  110                  0.00    428.58     82.58
  111                 54.00    428.52     90.54
  112                  0.00    428.55     86.55
  113                  0.00    428.47    105.47
  114                  0.00    428.34     80.34
  115                  0.00    428.23     82.23
  116                  0.00    428.30     83.30
  117                 83.00    427.97     84.97
  118                  0.00    428.09     89.09
  119                  0.00    428.09    105.28
  12                   0.00    428.61     98.27
  121                  0.00    428.39     78.39
  122                  0.00    428.30     81.30
  123                  0.00    428.30     82.30
  125                  0.00    428.38     77.38
  126                 63.00    428.29     80.29
  127                  0.00    428.29     84.96
  128                 70.00    428.44     66.44
  129                  0.00    428.33     72.33
  130                  0.00    428.25     87.17
  130B                 0.00    428.30     75.30
  132                 58.00    426.47     93.47
  134                  0.00    427.00    106.00
  135                 57.00    424.90    108.90
  137                 59.00    420.94    111.94
  139                  0.00    428.19     68.19
  14                 104.00    428.58     90.58
  140                  0.00    428.19     77.19
  141                  0.00    428.19     76.19
  142                  0.00    428.19     67.19
  143                  0.00    426.47     85.50
  144                  0.00    428.39     69.39
  146                  0.00    428.35     82.35
  147                  0.00    428.29    107.29
  148                  0.00    428.34     95.34
  149                  0.00    428.15    114.94
  15                   0.00    428.59     93.59
  150                 82.00    427.99    119.92
  151                  0.00    427.99    122.75
  152                  0.00    427.99    117.97
  153                  0.00    427.99    117.99
  154                  0.00    428.39    103.39
  157                  0.00    428.39    125.39
  158A                 0.00    428.39    107.39
  158B                 0.00    428.39    107.39
  16B                  0.00    428.59     94.59
  160                  0.00    428.84     61.84
  162                  0.00    428.79     60.79
  163                 90.00    428.44     54.44
  164                  0.00    428.73     69.07
  165                 65.00    428.63     67.33
  166                  0.00    428.63     67.62
  167                  0.00    428.63     57.99
  169                  0.00    428.71     62.21
  17A                  0.00    428.59     93.59
  170                  0.00    428.86     69.86
  17B                  0.00    428.59     93.59
  171                  0.00    428.87     76.87
  172                  0.00    428.87     88.87
  18B                  0.00    428.59    103.59
  19                   0.00    428.86     70.86
  2                    0.00    428.75    102.75
  20                  95.00    428.80     64.80
  2002                 0.00    428.25     78.25
  2003                 0.00    428.25     78.25
  21                  62.00    428.77     66.04
  22                  50.00    428.77     67.17
  222                  0.00    428.72     78.72
  24                   0.00    428.69     84.69
  25                   0.00    428.65     83.65
  26                   0.00    428.60     80.60
  27                   0.00    428.62     78.62
  28                   0.00    428.58     80.58
  29                   0.00    428.47     72.47
  3                    0.00    428.71     88.36
  30                   0.00    428.46     67.46
  3002                 0.00    428.80     42.80
  3004                 0.00    428.80     42.80
  3005                 0.00    428.80     42.80
  3008                 0.00    428.80     43.80
  3012                 0.00    428.80     58.07
  3013                 0.00    428.80     63.87
  3016                 0.00    428.83     63.83
  3017                 0.00    428.91     46.91
  3018                 0.00    428.89     51.89
  3019                 0.00    428.80     59.41
  3020                 0.00    428.80     60.69
  3024                 0.00    428.80     63.86
  31                   0.00    428.42     70.63
  3152                 0.00    428.80     62.60
  32                   0.00    428.43     70.43
  34                  63.00    428.26     77.24
  35                   0.00    428.39     91.39
  36                   0.00    428.39    100.39
  39                   0.00    428.39    115.39
  41                   0.00    428.39    121.39
  46                   0.00    428.89     52.89
  47                   0.00    428.71     70.53
  48                   0.00    428.85     84.85
  49                   0.00    428.85     76.85
  5                    0.00    428.68     81.68
  52                   0.00    428.85     77.85
  53                   0.00    428.88     72.88
  54                   0.00    428.83     83.83
  55                   0.00    427.57     97.57
  56                  53.00    426.98     92.98
  58                  93.00    423.30     90.30
  59                 167.00    419.43     90.43
  6                    0.00    428.52     76.52
  60                   0.00    428.71     83.71
  61                   0.00    428.71     89.71
  62                   0.00    428.44     74.44
  64                   0.00    428.71     97.71
  65                   0.00    428.67     88.67
  66                   0.00    428.66     89.66
  67                   0.00    428.60     96.60
  68                   0.00    428.55     89.55
  69                   0.00    428.55     77.55
  7                    0.00    428.65     75.65
  70                 106.00    427.98     87.98
  71                  73.00    427.00     90.00
  72                 102.00    428.44     72.44
  73                 166.00    428.47     73.47
  77                   0.00    428.44     72.44
  78                   0.00    428.44     88.30
  79                   0.00    428.65     75.65
  8                    0.00    428.54     78.54
  80                   0.00    428.61     79.61
  81                   0.00    427.75     68.75
  82                  92.00    427.19     69.19
  85                   0.00    427.98     88.98
  86                   0.00    427.98     90.98
  87                   0.00    428.47     68.47
  88                   0.00    428.47     75.47
  89                   0.00    428.47     61.47
  90                   0.00    428.47     72.47
  91                   0.00    428.47     56.47
  92                   0.00    428.47     68.47
  91B                  0.00    428.47     68.47
  94                   0.00    428.63     89.63
  95                   0.00    428.63     85.63
  97                   0.00    428.63     97.63
  99                   0.00    428.47     78.47
  74                  86.00    425.78     67.07
  1074                 0.00    428.47     70.47
  11A                  0.00    428.63     85.63
  1011                 0.00    428.63     85.63
  0                -2257.00    429.00      0.00  Reservoir
   
   
  Link Results:
  ----------------------------------------------
                       Flow  Velocity  Headloss
  Link                 m3/h       m/s    /1000m
  ----------------------------------------------
  TU1                 -0.00      0.00      0.00
  TU10                 0.00      0.00      0.00
  TU100              179.00      0.40      0.33
  TU101              179.00      0.25      0.11
  TU102                0.00      0.00      0.00
  TU103              179.00      0.25      0.11
  TU104              179.00      0.25      0.11
  TU105              674.00      0.29      0.07
  TU106              674.00      0.29      0.07
  TU107                0.00      0.00      0.00
  TU108              674.00      0.29      0.07
  TU109              853.00      0.37      0.11
  TU11                -0.00      0.00      0.00
  TU110              853.00      0.37      0.11
  TU111              167.00      2.20     22.00
  TU112              260.00      1.90     11.86
  TU113              313.00      1.66      7.67
  TU114              313.00      1.66      7.67
  TU115             1238.00      0.44      0.13
  TU116             1238.00      0.44      0.13
  TU117               -0.00      0.00      0.00
  TU118                0.00      0.00      0.00
  TU119             1238.00      0.44      0.13
  TU12                 0.00      0.00      0.00
  TU120             1238.00      0.44      0.13
  TU121               -0.00      0.00      0.00
  TU122                0.00      0.00      0.00
  TU123               -0.00      0.00      0.00
  TU124                0.00      0.00      0.00
  TU125               -0.00      0.00      0.00
  TU126               -0.00      0.00      0.00
  TU127               -0.00      0.00      0.00
  TU128                0.00      0.00      0.00
  TU129                0.00      0.00      0.00
  TU13                 0.00      0.00      0.00
  TU130               65.00      0.28      0.28
  TU131               65.00      0.28      0.27
  TU132                0.00      0.00      0.00
  TU133               65.00      0.28      0.27
  TU134               -0.00      0.00      0.00
  TU135              155.00      0.34      0.25
  TU136              155.00      0.34      0.25
  TU137              155.00      0.22      0.09
  TU138              155.00      0.22      0.09
  TU139              155.00      0.15      0.04
  TU14               104.00      0.23      0.12
  TU140              155.00      0.15      0.04
  TU141                0.00      0.00      0.00
  TU142              102.00      0.28      0.19
  TU143               -0.00      0.00      0.00
  TU144               -0.00      0.00      0.00
  TU145               -0.00      0.00      0.00
  TU146               -0.00      0.00      0.00
  TU147               -0.00      0.00      0.00
  TU148               -0.00      0.00      0.00
  TU149               -0.00      0.00      0.00
  TU15                -0.00      0.00      0.00
  TU150               -0.00      0.00      0.00
  TU151               -0.00      0.00      0.00
  TU152               -0.00      0.00      0.00
  TU15301             86.00      0.12      0.03
  TU15302              0.00      0.00      0.00
  TU1074              86.00      1.13      6.49
  TU154              252.00      0.25      0.09
  TU155               72.00      1.21      8.53
  TU156              324.00      0.32      0.14
  TU157              426.00      0.42      0.22
  TU158                0.00      0.00      0.00
  TU159              426.00      0.42      0.22
  TU16              2257.00      0.41      0.08
  TU160                0.00      0.00      0.00
  TU161              426.00      0.42      0.22
  TU162              248.00      0.18      0.04
  TU163              248.00      0.18      0.04
  TU164              248.00      0.18      0.04
  TU166               -0.00      0.00      0.00
  TU167               92.00      1.21      7.34
  TU168               92.00      1.21      7.34
  TU169               92.00      0.77      2.49
  TU17                68.00      1.21      8.81
  TU170               92.00      0.42      0.57
  TU171              156.00      0.11      0.02
  TU17201             -0.00      0.00      0.00
  TU17202              0.00      0.00      0.00
  TU1011A             -0.00      0.00      0.00
  TU173               -0.00      0.00      0.00
  TU174               -0.00      0.00      0.00
  TU175               -0.00      0.00      0.00
  TU176              104.00      0.10      0.02
  TU177              156.00      0.15      0.04
  TU178              104.00      0.10      0.02
  TU179                0.00      0.00      0.00
  TU18                68.00      0.78      3.01
  TU180                0.00      0.00      0.00
  TU181                0.00      0.00      0.00
  TU182                0.00      0.00      0.00
  TU183                0.00      0.00      0.00
  TU184                0.00      0.00      0.00
  TU185              146.00      0.32      0.23
  TU186               65.00      0.18      0.09
  TU187              155.00      0.34      0.25
  TU188              589.00      0.43      0.19
  TU189              589.00      0.43      0.19
  TU19                 0.00      0.00      0.00
  TU190               -0.00      0.00      0.00
  TU191               -0.00      0.00      0.00
  TU192                0.00      0.00      0.00
  TU193                0.00      0.00      0.00
  TU194               -0.00      0.00      0.00
  TU195                0.00      0.00      0.00
  TU196                0.00      0.00      0.00
  TU197               -0.00      0.00      0.00
  TU198                0.00      0.00      0.00
  TU199                0.00      0.00      0.00
  TU2                  0.00      0.00      0.00
  TU20                68.00      0.50      1.02
  TU200               -0.00      0.00      0.00
  TU201                0.00      0.00      0.00
  TU203                0.00      0.00      0.00
  TU204              864.00      0.38      0.11
  TU205              864.00      0.38      0.11
  TU21                -0.00      0.00      0.00
  TU22               657.00      0.36      0.12
  TU23               657.00      0.36      0.12
  TU24               707.00      0.39      0.14
  TU25               769.00      0.42      0.16
  TU26               389.00      0.38      0.19
  TU27               389.00      0.38      0.19
  TU28               389.00      0.38      0.19
  TU29               389.00      0.38      0.19
  TU3                  0.00      0.00      0.00
  TU30                 0.00      0.00      0.00
  TU31                -0.00      0.00      0.00
  TU32                83.00      0.95      4.32
  TU33                83.00      0.38      0.47
  TU34                83.00      0.38      0.47
  TU35                 0.00      0.00      0.00
  TU36                 0.00      0.00      0.00
  TU37                83.00      0.24      0.15
  TU38                83.00      0.24      0.15
  TU39                -0.00      0.00      0.00
  TU4                 -0.00      0.00      0.00
  TU40                63.00      0.46      0.89
  TU41               146.00      0.32      0.23
  TU42                90.00      0.62      1.49
  TU43               200.00      0.28      0.14
  TU44               200.00      0.28      0.14
  TU45               200.00      0.28      0.14
  TU46               200.00      0.28      0.14
  TU47                -0.00      0.00      0.00
  TU48                 0.00      0.00      0.00
  TU49                 0.00      0.00      0.00
  TU5                  0.00      0.00      0.00
  TU50                 0.00      0.00      0.00
  TU51                 0.00      0.00      0.00
  TU52                 0.00      0.00      0.00
  TU53                 0.00      0.00      0.00
  TU54                 0.00      0.00      0.00
  TU55                 0.00      0.00      0.00
  TU56                 0.00      0.00      0.00
  TU57                 0.00      0.00      0.00
  TU58                63.00      1.12      7.66
  TU59                63.00      0.18      0.09
  TU6                146.00      0.21      0.08
  TU60                 0.00      0.00      0.00
  TU61                 0.00      0.00      0.00
  TU62                82.00      0.44      0.67
  TU63                 0.00      0.00      0.00
  TU64                82.00      0.44      0.67
  TU65                 0.00      0.00      0.00
  TU66                82.00      0.27      0.21
  TU67                82.00      0.23      0.15
  TU68                82.00      0.23      0.15
  TU69               145.00      0.21      0.08
  TU7                  0.00      0.00      0.00
  TU70               145.00      0.21      0.08
  TU71               145.00      0.21      0.08
  TU72               174.00      0.38      0.31
  TU73               174.00      0.38      0.31
  TU74               174.00      0.38      0.31
  TU75               174.00      0.38      0.31
  TU76               174.00      0.38      0.31
  TU77               244.00      0.54      0.58
  TU78                59.00      1.22      9.72
  TU79               116.00      1.53     11.23
  TU8                  0.00      0.00      0.00
  TU80                 0.00      0.00      0.00
  TU81               116.00      0.98      3.80
  TU82                 0.00      0.00      0.00
  TU83                58.00      0.76      3.17
  TU84                 0.00      0.00      0.00
  TU85                 0.00      0.00      0.00
  TU86                 0.00      0.00      0.00
  TU87                 0.00      0.00      0.00
  TU88                58.00      0.13      0.04
  TU89                 0.00      0.00      0.00
  TU9                  0.00      0.00      0.00
  TU90                 0.00      0.00      0.00
  TU91                -0.00      0.00      0.00
  TU92               106.00      0.49      0.74
  TU93               106.00      0.30      0.23
  TU94                73.00      0.83      3.42
  TU95               179.00      0.51      0.60
  TU96                 0.00      0.00      0.00
  TU97                 0.00      0.00      0.00
  TU98                 0.00      0.00      0.00
  TU99               179.00      0.40      0.33
  TU4000               0.00      0.00      0.00
   
  Analysis ended Fri Dec  1 09:58:28 2023
