  Page 1                                    Fri Dec  1 09:52:03 2023

  ******************************************************************
  *                           E P A N E T                          *
  *                   Hydraulic and Water Quality                  *
  *                   Analysis for Pipe Networks                   *
  *                         Version 2.2                            *
  ******************************************************************
  
  Analysis begun Fri Dec  1 09:52:03 2023

   
  Node Results:
  ----------------------------------------------
                     Demand      Head  Pressure
  Node                 m3/h         m         m
  ----------------------------------------------
  3661                 0.00    428.98     50.84
  482                  0.00    428.99     82.99
  661                  0.00    428.91     98.91
  6610                 0.00    428.23      3.11
  6611                 0.00    428.97     93.97
  6612                 0.00    428.87     66.50
  6613                 0.00    428.97     73.97
  6615                 0.00    428.97     89.97
  6616                 0.00    428.91     67.91
  6617                 0.00    428.88     85.88
  6618                 0.00    428.95     80.95
  662                  0.00    428.98    100.98
  6620                 0.00    427.75    119.75
  6621                 0.00    428.47    100.47
  6622                 0.00    428.64     91.64
  6623                 0.00    428.80     77.80
  6624                 0.00    428.84     76.84
  6625                 0.00    428.84    116.84
  6626                 0.00    428.84    107.84
  6627                 0.00    428.91    107.91
  6628                 0.00    428.98     89.98
  6629                 0.00    428.98     88.98
  663                  0.00    428.97     87.97
  6630                 0.00    428.98      3.86
  6632                 0.00    428.98     88.98
  6633                 0.00    428.99     66.35
  6634                 0.00    428.99     57.99
  6635                 0.00    428.99     76.99
  6636                 0.00    428.99     72.99
  6637                 0.00    428.99     61.99
  6639                 0.00    428.65     68.65
  664                  0.00    428.97     80.97
  6640                 0.00    428.47     68.47
  6641                 0.00    428.79     70.11
  6642                 0.00    428.79     72.79
  6643                 0.00    428.93     76.93
  6644                 0.00    428.94     76.94
  6645                 0.00    428.95     78.95
  6646                 0.00    428.97     81.95
  6648                 0.00    428.97     82.96
  6649                 0.00    428.97     89.97
  665                  0.00    428.97     83.97
  666                  0.00    428.98     88.98
  6665                 0.00    428.99     63.85
  6666                 0.00    428.99     61.33
  667                  0.00    428.94     76.94
  668                  0.00    428.91     98.91
  669                  0.00    428.98     83.98
  1                    0.00    428.99     98.99
  10                   0.00    428.93     76.93
  100                  0.00    428.79     73.79
  100B                83.00    427.98     69.98
  101                  0.00    428.97     75.97
  103                  0.00    428.97     89.97
  104                  0.00    428.97     89.97
  105                  0.00    428.97     73.97
  106                  0.00    428.97     73.97
  107                  0.00    428.97     89.97
  108                  0.00    428.97     93.41
  109                  0.00    428.97     91.97
  11B                  0.00    428.97     85.97
  110                  0.00    428.95     82.95
  111                  0.00    428.94     90.96
  112                  0.00    428.95     86.95
  113                  0.00    428.93    105.93
  114                  0.00    428.90     80.90
  115                  0.00    428.88     82.88
  116                  0.00    428.88     83.88
  117                  0.00    428.88     85.88
  118                  0.00    428.88     89.88
  119                  0.00    428.88    106.07
  12                   0.00    428.97     98.63
  121                  0.00    428.92     78.92
  122                 53.00    426.35     79.35
  123                  0.00    428.53     82.53
  125                  0.00    428.92     77.92
  126                  0.00    428.92     80.92
  127                  0.00    428.92     85.59
  128                  0.00    428.91     66.91
  129                  0.00    428.91     72.91
  130                  0.00    428.91     87.83
  130B                 0.00    428.91     75.91
  132                  0.00    428.91     95.91
  134                  0.00    428.91    107.91
  135                  0.00    428.91    112.91
  137                  0.00    428.91    119.91
  139                  0.00    428.91     68.91
  14                   0.00    428.97     90.97
  140                  0.00    428.91     77.91
  141                  0.00    428.91     76.91
  142                  0.00    428.91     67.91
  143                  0.00    428.91     87.94
  144                  0.00    428.91     69.91
  146                  0.00    428.84     82.84
  147                  0.00    428.84    107.84
  148                  0.00    428.84     95.84
  149                  0.00    428.84    115.63
  15                   0.00    428.97     93.97
  150                  0.00    428.84    120.77
  151                  0.00    428.84    123.60
  152                  0.00    428.84    118.82
  153                  0.00    428.84    118.84
  154                  0.00    428.39    103.39
  157                  0.00    427.75    124.75
  158A                69.00    417.51     96.51
  158B                69.00    417.49     96.49
  16B                  0.00    428.97     94.97
  160                  0.00    428.99     61.99
  162                  0.00    428.99     60.99
  163                  0.00    428.99     54.99
  164                  0.00    428.99     69.33
  165                  0.00    428.99     67.69
  166                  0.00    428.99     67.98
  167                  0.00    428.99     58.35
  169                  0.00    428.99     62.49
  17A                  0.00    428.97     93.97
  170                  0.00    428.99     69.99
  17B                  0.00    428.97     93.97
  171                  0.00    428.99     76.99
  172                  0.00    428.99     88.99
  18B                  0.00    428.97    103.97
  19                   0.00    428.99     70.99
  2                    0.00    428.99    102.99
  20                   0.00    428.98     64.98
  2002                 0.00    428.98     78.98
  2003                 0.00    428.98     78.98
  21                   0.00    428.98     66.25
  22                   0.00    428.98     67.38
  222                  0.00    428.97     78.97
  24                   0.00    428.97     84.97
  25                   0.00    428.96     83.96
  26                   0.00    428.95     80.95
  27                   0.00    428.95     78.95
  28                   0.00    428.94     80.94
  29                   0.00    428.91     72.91
  3                    0.00    428.98     88.63
  30                   0.00    428.91     67.91
  3002                 0.00    428.98     42.98
  3004                 0.00    428.98     42.98
  3005                 0.00    428.98     42.98
  3008                 0.00    428.98     43.98
  3012                 0.00    428.98     58.25
  3013                 0.00    428.98     64.05
  3016                 0.00    428.99     63.99
  3017                 0.00    428.99     46.99
  3018                 0.00    428.99     51.99
  3019                 0.00    428.98     59.59
  3020                 0.00    428.98     60.87
  3024                 0.00    428.98     64.04
  31                  52.00    428.85     71.06
  3152                 0.00    428.98     62.78
  32                   0.00    428.88     70.88
  34                   0.00    428.80     77.78
  35                   0.00    428.64     91.64
  36                   0.00    428.47    100.47
  39                   0.00    428.16    115.16
  41                   0.00    427.52    120.52
  46                   0.00    428.99     52.99
  47                   0.00    428.99     70.81
  48                   0.00    428.99     84.99
  49                   0.00    428.99     76.99
  5                    0.00    428.98     81.98
  52                   0.00    428.99     77.99
  53                   0.00    428.99     72.99
  54                   0.00    428.99     83.99
  55                   0.00    428.99     98.99
  56                   0.00    428.99     94.99
  58                   0.00    428.99     95.99
  59                   0.00    428.99     99.99
  6                    0.00    428.94     76.94
  60                   0.00    428.98     83.98
  61                   0.00    428.98     89.98
  62                   0.00    428.94     74.94
  64                   0.00    428.98     97.98
  65                   0.00    428.98     88.98
  66                   0.00    428.98     89.98
  67                   0.00    428.98     96.98
  68                   0.00    428.98     89.98
  69                   0.00    428.98     77.98
  7                    0.00    428.97     75.97
  70                   0.00    428.98     88.98
  71                   0.00    428.98     91.98
  72                   0.00    428.94     72.94
  73                   0.00    428.92     73.92
  77                   0.00    428.94     72.94
  78                   0.00    428.94     88.80
  79                  50.00    428.97     75.97
  8                    0.00    428.95     78.95
  80                   0.00    428.97     79.97
  81                   0.00    428.97     69.97
  82                   0.00    428.97     70.97
  85                   0.00    428.98     89.98
  86                   0.00    428.98     91.98
  87                   0.00    428.88     68.88
  88                   0.00    428.87     75.87
  89                   0.00    428.83     61.83
  90                   0.00    428.79     72.79
  91                   0.00    428.65     56.65
  92                   0.00    428.23     68.23
  91B                100.00    428.11     68.11
  94                   0.00    428.97     89.97
  95                   0.00    428.97     85.97
  97                   0.00    428.97     97.97
  99                   0.00    428.83     78.83
  74                   0.00    428.92     70.21
  1074                 0.00    428.92     70.92
  11A                  0.00    428.97     85.97
  1011                 0.00    428.97     85.97
  0                 -476.00    429.00      0.00  Reservoir
   
   
  Link Results:
  ----------------------------------------------
                       Flow  Velocity  Headloss
  Link                 m3/h       m/s    /1000m
  ----------------------------------------------
  TU1                 -0.00      0.00      0.00
  TU10                 0.00      0.00      0.00
  TU100                0.00      0.00      0.00
  TU101                0.00      0.00      0.00
  TU102                0.00      0.00      0.00
  TU103                0.00      0.00      0.00
  TU104                0.00      0.00      0.00
  TU105              233.00      0.10      0.01
  TU106              233.00      0.10      0.01
  TU107                0.00      0.00      0.00
  TU108              233.00      0.10      0.01
  TU109              233.00      0.10      0.01
  TU11                -0.00      0.00      0.00
  TU110              233.00      0.10      0.01
  TU111                0.00      0.00      0.00
  TU112               -0.00      0.00      0.00
  TU113                0.00      0.00      0.00
  TU114                0.00      0.00      0.00
  TU115              233.00      0.08      0.01
  TU116              233.00      0.08      0.01
  TU117               -0.00      0.00      0.00
  TU118                0.00      0.00      0.00
  TU119              233.00      0.08      0.01
  TU12                 0.00      0.00      0.00
  TU120              233.00      0.08      0.01
  TU121                0.00      0.00      0.00
  TU122                0.00      0.00      0.00
  TU123               -0.00      0.00      0.00
  TU124                0.00      0.00      0.00
  TU125               -0.00      0.00      0.00
  TU126               -0.00      0.00      0.00
  TU127               -0.00      0.00      0.00
  TU128                0.00      0.00      0.00
  TU129                0.00      0.00      0.00
  TU13                 0.00      0.00      0.00
  TU130               -0.00      0.00      0.00
  TU131               -0.00      0.00      0.00
  TU132                0.00      0.00      0.00
  TU133               -0.00      0.00      0.00
  TU134              100.00      1.08      5.30
  TU135               -0.00      0.00      0.00
  TU136                0.00      0.00      0.00
  TU137                0.00      0.00      0.00
  TU138                0.00      0.00      0.00
  TU139                0.00      0.00      0.00
  TU14                -0.00      0.00      0.00
  TU140                0.00      0.00      0.00
  TU141                0.00      0.00      0.00
  TU142                0.00      0.00      0.00
  TU143               -0.00      0.00      0.00
  TU144               83.00      0.90      3.77
  TU145              100.00      0.69      1.81
  TU146              183.00      0.80      1.77
  TU147              183.00      0.49      0.56
  TU148                0.00      0.00      0.00
  TU149               -0.00      0.00      0.00
  TU15                -0.00      0.00      0.00
  TU150               -0.00      0.00      0.00
  TU151              183.00      0.26      0.12
  TU152               -0.00      0.00      0.00
  TU15301            183.00      0.26      0.12
  TU15302            183.00      0.26      0.12
  TU1074               0.00      0.00      0.00
  TU154              183.00      0.18      0.05
  TU155               -0.00      0.00      0.00
  TU156              183.00      0.18      0.05
  TU157              183.00      0.18      0.05
  TU158                0.00      0.00      0.00
  TU159              183.00      0.18      0.05
  TU16               476.00      0.09      0.00
  TU160                0.00      0.00      0.00
  TU161              183.00      0.18      0.05
  TU162               50.00      0.04      0.00
  TU163               -0.00      0.00      0.00
  TU164               50.00      0.04      0.00
  TU166               -0.00      0.00      0.00
  TU167               -0.00      0.00      0.00
  TU168                0.00      0.00      0.00
  TU169                0.00      0.00      0.00
  TU17                 0.00      0.00      0.00
  TU170                0.00      0.00      0.00
  TU171               -0.00      0.00      0.00
  TU17201              0.00      0.00      0.00
  TU17202              0.00      0.00      0.00
  TU1011A             -0.00      0.00      0.00
  TU173               -0.00      0.00      0.00
  TU174               -0.00      0.00      0.00
  TU175               -0.00      0.00      0.00
  TU176               -0.00      0.00      0.00
  TU177               -0.00      0.00      0.00
  TU178               -0.00      0.00      0.00
  TU179                0.00      0.00      0.00
  TU18                 0.00      0.00      0.00
  TU180                0.00      0.00      0.00
  TU181                0.00      0.00      0.00
  TU182                0.00      0.00      0.00
  TU183                0.00      0.00      0.00
  TU184                0.00      0.00      0.00
  TU185               53.00      0.12      0.04
  TU186               -0.00      0.00      0.00
  TU187               -0.00      0.00      0.00
  TU188              243.00      0.18      0.04
  TU189              243.00      0.18      0.04
  TU19                 0.00      0.00      0.00
  TU190               -0.00      0.00      0.00
  TU191               -0.00      0.00      0.00
  TU192                0.00      0.00      0.00
  TU193                0.00      0.00      0.00
  TU194               -0.00      0.00      0.00
  TU195                0.00      0.00      0.00
  TU196                0.00      0.00      0.00
  TU197               -0.00      0.00      0.00
  TU198                0.00      0.00      0.00
  TU199                0.00      0.00      0.00
  TU2                  0.00      0.00      0.00
  TU20                 0.00      0.00      0.00
  TU200               -0.00      0.00      0.00
  TU201                0.00      0.00      0.00
  TU203                0.00      0.00      0.00
  TU204              243.00      0.11      0.01
  TU205              243.00      0.11      0.01
  TU21                -0.00      0.00      0.00
  TU22               243.00      0.13      0.02
  TU23               243.00      0.13      0.02
  TU24               243.00      0.13      0.02
  TU25               243.00      0.13      0.02
  TU26               190.00      0.19      0.05
  TU27               190.00      0.19      0.05
  TU28               190.00      0.19      0.05
  TU29               190.00      0.19      0.05
  TU3                  0.00      0.00      0.00
  TU30                 0.00      0.00      0.00
  TU31                -0.00      0.00      0.00
  TU32                 0.00      0.00      0.00
  TU33                 0.00      0.00      0.00
  TU34                 0.00      0.00      0.00
  TU35                53.00      0.94      5.59
  TU36                53.00      0.61      1.91
  TU37                53.00      0.15      0.07
  TU38                53.00      0.15      0.07
  TU39                -0.00      0.00      0.00
  TU4                183.00      0.26      0.12
  TU40                 0.00      0.00      0.00
  TU41                53.00      0.12      0.04
  TU42                 0.00      0.00      0.00
  TU43                53.00      0.07      0.01
  TU44                53.00      0.07      0.01
  TU45                53.00      0.07      0.01
  TU46                53.00      0.07      0.01
  TU47                -0.00      0.00      0.00
  TU48               138.00      1.81     15.47
  TU49               138.00      1.16      5.21
  TU5                183.00      0.26      0.12
  TU50                 0.00      0.00      0.00
  TU51               138.00      0.73      1.71
  TU52               138.00      0.46      0.54
  TU53               138.00      0.46      0.54
  TU54                 0.00      0.00      0.00
  TU55               138.00      0.46      0.54
  TU56                 0.00      0.00      0.00
  TU57               138.00      0.39      0.38
  TU58                 0.00      0.00      0.00
  TU59               138.00      0.39      0.38
  TU6                 53.00      0.07      0.01
  TU60                -0.00      0.00      0.00
  TU61                 0.00      0.00      0.00
  TU62                -0.00      0.00      0.00
  TU63                 0.00      0.00      0.00
  TU64                 0.00      0.00      0.00
  TU65                 0.00      0.00      0.00
  TU66                 0.00      0.00      0.00
  TU67                 0.00      0.00      0.00
  TU68                 0.00      0.00      0.00
  TU69               138.00      0.20      0.07
  TU7                  0.00      0.00      0.00
  TU70               190.00      0.27      0.13
  TU71               190.00      0.27      0.13
  TU72                 0.00      0.00      0.00
  TU73                 0.00      0.00      0.00
  TU74                 0.00      0.00      0.00
  TU75                 0.00      0.00      0.00
  TU76                 0.00      0.00      0.00
  TU77                 0.00      0.00      0.00
  TU78                 0.00      0.00      0.00
  TU79                 0.00      0.00      0.00
  TU8                  0.00      0.00      0.00
  TU80                 0.00      0.00      0.00
  TU81                 0.00      0.00      0.00
  TU82                 0.00      0.00      0.00
  TU83                 0.00      0.00      0.00
  TU84                 0.00      0.00      0.00
  TU85                 0.00      0.00      0.00
  TU86                 0.00      0.00      0.00
  TU87                 0.00      0.00      0.00
  TU88                 0.00      0.00      0.00
  TU89                 0.00      0.00      0.00
  TU9                  0.00      0.00      0.00
  TU90                 0.00      0.00      0.00
  TU91                -0.00      0.00      0.00
  TU92                -0.00      0.00      0.00
  TU93                 0.00      0.00      0.00
  TU94                 0.00      0.00      0.00
  TU95                 0.00      0.00      0.00
  TU96                 0.00      0.00      0.00
  TU97                 0.00      0.00      0.00
  TU98                 0.00      0.00      0.00
  TU99                 0.00      0.00      0.00
  TU4000              69.00      0.91      4.35
   
  Analysis ended Fri Dec  1 09:52:03 2023
