  Page 1                                    Fri Sep  8 13:20:34 2023

  ******************************************************************
  *                           E P A N E T                          *
  *                   Hydraulic and Water Quality                  *
  *                   Analysis for Pipe Networks                   *
  *                         Version 2.2                            *
  ******************************************************************
  
  Analysis begun Fri Sep  8 13:20:34 2023

   
  Node Results:
  ----------------------------------------------
                     Demand      Head  Pressure
  Node                 m3/h         m         m
  ----------------------------------------------
  3661                 0.00    428.91     50.77
  482                  0.00    427.89     81.89
  661                  0.00    422.23     92.23
  6610                 0.00    428.27     68.27
  6611                 0.00    427.32     92.32
  6612                 0.00    428.27     65.90
  6613                 0.00    427.40     72.40
  6615                 0.00    423.32     84.32
  6616                 0.00    422.60     61.60
  6617                 0.00    423.00     80.00
  6618                 0.00    423.15     75.15
  662                  0.00    428.52    100.52
  6620                 0.00    421.08    113.08
  6621                 0.00    421.90     93.90
  6622                 0.00    422.09     85.09
  6623                 0.00    422.27     71.27
  6624                 0.00    422.34     70.34
  6625                 0.00    385.85     73.85
  6626                 0.00    422.03    101.03
  6627                 0.00    422.23    101.23
  6628                 0.00    424.84     85.84
  6629                 0.00    427.21     87.21
  663                  0.00    428.35     87.35
  6630                 0.00    427.79     87.99
  6632                 0.00    428.06     88.06
  6633                 0.00    428.81     66.17
  6634                 0.00    428.84     57.84
  6635                 0.00    428.69     76.69
  6636                 0.00    428.69     72.69
  6637                 0.00    428.60     61.60
  6639                 0.00    428.27     68.27
  664                  0.00    428.15     80.15
  6640                 0.00    428.27     68.27
  6641                 0.00    428.27     69.59
  6642                 0.00    428.27     72.27
  6643                 0.00    428.28     76.28
  6644                 0.00    428.29     76.29
  6645                 0.00    428.30     78.30
  6646                 0.00    428.12     81.10
  6648                 0.00    428.12     82.11
  6649                 0.00    427.71     88.71
  665                  0.00    428.04     83.04
  666                  0.00    427.79     87.79
  6665                 0.00    428.56     63.42
  6666                 0.00    428.58     60.92
  667                  0.00    428.29     76.29
  668                  0.00    422.23     92.23
  669                  0.00    426.96     81.96
  1                   69.00    428.67     98.67
  10                  72.00    427.83     75.83
  100                  0.00    428.27     73.27
  100B                 0.00    428.27     70.27
  101                  0.00    427.40     74.40
  103                  0.00    427.56     88.56
  104                  0.00    427.56     88.56
  105                  0.00    427.40     72.40
  106                 54.00    427.33     72.33
  107                  0.00    423.32     84.32
  108                  0.00    423.32     84.76
  109                  0.00    423.32     86.32
  11B                 51.00    428.00     85.00
  110                  0.00    423.14     77.14
  111                  0.00    423.11     84.33
  112                  0.00    423.13     81.13
  113                  0.00    423.08    100.08
  114                 59.00    423.00     75.00
  115                  0.00    423.00     77.00
  116                  0.00    423.00     78.00
  117                  0.00    423.00     80.00
  118                  0.00    423.00     84.00
  119                  0.00    423.00    100.19
  12                   0.00    427.82     97.48
  121                 62.00    423.02     74.22
  122                  0.00    423.00     75.10
  123                  0.00    423.00     77.00
  125                  0.00    423.02     72.02
  126                  0.00    423.02     75.02
  127                  0.00    423.02     79.69
  128                 56.00    422.57     60.57
  129                  0.00    422.33     66.33
  130                162.00    422.23     81.15
  130B                67.00    422.28     69.28
  132                  0.00    422.23     89.23
  134                  0.00    422.23    101.23
  135                  0.00    422.23    106.23
  137                  0.00    422.23    113.23
  139                  0.00    422.23     62.23
  14                  80.00    427.56     89.56
  140                  0.00    422.23     71.23
  141                  0.00    422.23     70.23
  142                  0.00    422.23     61.23
  143                  0.00    422.23     81.26
  144                 79.00    422.44     63.44
  146                  0.00    422.19     76.19
  147                 52.00    421.83    100.83
  148                  0.00    422.16     89.16
  149                  0.00    385.85     72.64
  15                   0.00    427.32     92.32
  150                 95.00    385.63     77.56
  151                  0.00    385.63     80.39
  152                  0.00    385.63     75.61
  153                  0.00    385.63     75.63
  154                  0.00    421.81     96.81
  157                  0.00    421.08    118.08
  158A                74.00    409.43     88.43
  158B                74.00    409.40     88.40
  16B                 89.00    427.58     93.58
  160                 66.00    428.59     61.59
  162                  0.00    428.59     60.59
  163                  0.00    428.58     54.58
  164                  0.00    428.56     68.90
  165                  0.00    428.56     67.26
  166                  0.00    428.56     67.55
  167                  0.00    428.56     57.92
  169                 51.00    428.48     61.98
  17A                  0.00    427.14     92.14
  170                103.00    428.63     69.63
  17B                  0.00    426.96     91.96
  171                  0.00    428.69     76.69
  172                  0.00    428.69     88.69
  18B                213.00    421.52     96.52
  19                   0.00    428.81     70.81
  2                    0.00    428.55    102.55
  20                   0.00    428.91     64.91
  2002                 0.00    426.96     76.96
  2003                 0.00    426.96     76.96
  21                  48.00    423.45     61.85
  22                   0.00    423.45     61.85
  222                  0.00    423.37     73.37
  24                   0.00    423.32     79.32
  25                   0.00    423.24     78.24
  26                   0.00    423.15     75.15
  27                   0.00    423.15     73.15
  28                   0.00    423.02     73.02
  29                  55.00    422.65     66.65
  3                    0.00    428.44     88.09
  30                   0.00    422.61     61.61
  3002                 0.00    428.91     42.91
  3004                 0.00    428.91     42.91
  3005                 0.00    428.91     42.91
  3008                 0.00    428.91     43.91
  3012                 0.00    428.91     58.18
  3013                 0.00    428.91     63.98
  3016                 0.00    428.91     63.91
  3017                 0.00    428.91     46.91
  3018                71.00    428.50     51.50
  3019                 0.00    428.91     59.52
  3020                 0.00    428.91     60.80
  3024                 0.00    428.91     63.97
  31                   0.00    422.43     64.64
  3152                 0.00    428.91     62.71
  32                   0.00    422.50     64.50
  34                  56.00    422.16     71.14
  35                   0.00    422.09     85.09
  36                   0.00    421.90     93.90
  39                   0.00    421.54    108.54
  41                   0.00    420.81    113.81
  46                   0.00    428.75     52.75
  47                   0.00    428.56     70.38
  48                   0.00    427.59     83.59
  49                  52.00    425.31     73.31
  5                    0.00    428.39     81.39
  52                  89.00    425.28     74.28
  53                 117.00    426.68     70.68
  54                   0.00    428.76     83.76
  55                   0.00    428.67     98.67
  56                   0.00    428.67     94.67
  58                   0.00    428.67     95.67
  59                   0.00    428.67     99.67
  6                    0.00    428.29     76.29
  60                   0.00    426.09     81.09
  61                  80.00    424.96     85.96
  62                   0.00    428.16     74.16
  64                  60.00    428.30     97.30
  65                  90.00    427.67     87.67
  66                  83.00    428.06     89.06
  67                   0.00    427.90     95.90
  68                   0.00    427.79     88.79
  69                   0.00    427.79     76.79
  7                    0.00    428.23     75.23
  70                 156.00    426.00     86.00
  71                  84.00    425.49     88.49
  72                   0.00    428.16     72.16
  73                   0.00    428.28     73.28
  77                 133.00    423.81     67.81
  78                   0.00    428.16     88.02
  79                  51.00    428.23     75.23
  8                    0.00    428.30     78.30
  80                  99.00    428.12     79.12
  81                   0.00    428.12     69.12
  82                   0.00    428.12     70.12
  85                  56.00    424.59     85.59
  86                   0.00    424.84     87.84
  87                   0.00    428.27     68.27
  88                  55.00    424.19     71.19
  89                   0.00    428.27     61.27
  90                   0.00    428.27     72.27
  91                   0.00    428.27     56.27
  92                   0.00    428.27     68.27
  91B                  0.00    428.27     68.27
  94                  71.00    427.17     88.17
  95                   0.00    427.49     84.49
  97                   0.00    427.35     96.35
  99                   0.00    428.27     78.27
  74                   0.00    428.28     69.57
  1074                 0.00    428.28     70.28
  11A                 73.00    427.28     84.28
  1011                 0.00    427.35     84.35
  4                    0.00    421.85    109.85
  9                    0.00    421.08    111.08
  0                -2268.00    429.00      0.00  Reservoir
  balsa             -939.00    423.45      0.00  Reservoir
   
   
  Link Results:
  ----------------------------------------------
                       Flow  Velocity  Headloss
  Link                 m3/h       m/s    /1000m
  ----------------------------------------------
  TU1                 -0.00      0.00      0.00
  TU10                 0.00      0.00      0.00
  TU100              296.00      0.65      0.82
  TU101              379.00      0.54      0.44
  TU102               90.00      1.60     14.72
  TU103              469.00      0.66      0.65
  TU104              529.00      0.75      0.81
  TU105             1041.00      0.45      0.16
  TU106             1041.00      0.45      0.16
  TU107                0.00      0.00      0.00
  TU108             1121.00      0.49      0.18
  TU109             1650.00      0.72      0.37
  TU11                54.00      0.25      0.22
  TU110             1650.00      0.72      0.37
  TU111                0.00      0.00      0.00
  TU112               -0.00      0.00      0.00
  TU113                0.00      0.00      0.00
  TU114                0.00      0.00      0.00
  TU115             1719.00      0.61      0.24
  TU116             1719.00      0.61      0.24
  TU117              117.00      1.26      7.06
  TU118                0.00      0.00      0.00
  TU119             1719.00      0.61      0.24
  TU12                 0.00      0.00      0.00
  TU120             1836.00      0.65      0.27
  TU121                0.00      0.00      0.00
  TU122                0.00      0.00      0.00
  TU123                0.00      0.00      0.00
  TU124               89.00      1.02      4.91
  TU125              141.00      1.03      3.85
  TU126              141.00      0.65      1.24
  TU127              141.00      0.65      1.24
  TU128                0.00      0.00      0.00
  TU129                0.00      0.00      0.00
  TU13                 0.00      0.00      0.00
  TU130               -0.00      0.00      0.00
  TU131               -0.00      0.00      0.00
  TU132               51.00      0.22      0.18
  TU133               51.00      0.22      0.18
  TU134               -0.00      0.00      0.00
  TU135               51.00      0.11      0.03
  TU136              117.00      0.26      0.15
  TU137              258.00      0.36      0.22
  TU138              361.00      0.51      0.40
  TU139              361.00      0.35      0.17
  TU14               134.00      0.30      0.20
  TU140              432.00      0.42      0.23
  TU141                0.00      0.00      0.00
  TU142              133.00      0.36      0.31
  TU143               -0.00      0.00      0.00
  TU144               -0.00      0.00      0.00
  TU145               -0.00      0.00      0.00
  TU146               -0.00      0.00      0.00
  TU147               -0.00      0.00      0.00
  TU148               -0.00      0.00      0.00
  TU149               -0.00      0.00      0.00
  TU15                -0.00      0.00      0.00
  TU150               -0.00      0.00      0.00
  TU151               -0.00      0.00      0.00
  TU152               -0.00      0.00      0.00
  TU15301             55.00      0.08      0.01
  TU15302             55.00      0.08      0.01
  TU1074               0.00      0.00      0.00
  TU154               55.00      0.05      0.01
  TU155               72.00      1.21      8.53
  TU156              127.00      0.12      0.03
  TU157              260.00      0.26      0.09
  TU158                0.00      0.00      0.00
  TU159              260.00      0.26      0.09
  TU16              2268.00      0.41      0.08
  TU160                0.00      0.00      0.00
  TU161              260.00      0.26      0.09
  TU162              781.00      0.56      0.32
  TU163              730.00      0.53      0.28
  TU164              781.00      0.56      0.32
  TU166               -0.00      0.00      0.00
  TU167               -0.00      0.00      0.00
  TU168                0.00      0.00      0.00
  TU169                0.00      0.00      0.00
  TU17                -0.00      0.00      0.00
  TU170               99.00      0.45      0.65
  TU171              631.00      0.46      0.22
  TU17201             73.00      0.96      4.81
  TU17202              0.00      0.00      0.00
  TU1011A             73.00      0.96      4.82
  TU173               73.00      0.53      1.16
  TU174               71.00      1.26      9.53
  TU175              144.00      0.66      1.29
  TU176              436.00      0.43      0.23
  TU177              487.00      0.48      0.29
  TU178              436.00      0.43      0.23
  TU179              213.00      0.60      0.83
  TU18                 0.00      0.00      0.00
  TU180              213.00      0.60      0.83
  TU181              213.00      1.79     11.58
  TU182              213.00      0.97      2.63
  TU183               80.00      0.91      4.04
  TU184                0.00      0.00      0.00
  TU185              121.00      0.27      0.16
  TU186               51.00      0.14      0.06
  TU187               51.00      0.11      0.03
  TU188              891.00      0.64      0.41
  TU189              891.00      0.64      0.41
  TU19                 0.00      0.00      0.00
  TU190               -0.00      0.00      0.00
  TU191               80.00      1.42     11.86
  TU192                0.00      0.00      0.00
  TU193                0.00      0.00      0.00
  TU194               -0.00      0.00      0.00
  TU195                0.00      0.00      0.00
  TU196                0.00      0.00      0.00
  TU197               -0.00      0.00      0.00
  TU198                0.00      0.00      0.00
  TU199                0.00      0.00      0.00
  TU2                  0.00      0.00      0.00
  TU20                -0.00      0.00      0.00
  TU200               -0.00      0.00      0.00
  TU201                0.00      0.00      0.00
  TU203               71.00      1.19      8.32
  TU204                0.00      0.00      0.00
  TU205                0.00      0.00      0.00
  TU21                -0.00      0.00      0.00
  TU22               891.00      0.49      0.21
  TU23               891.00      0.49      0.21
  TU24               891.00      0.49      0.21
  TU25               939.00      0.52      0.25
  TU26               715.00      0.70      0.58
  TU27               715.00      0.70      0.58
  TU28               770.00      0.76      0.66
  TU29               770.00      0.76      0.66
  TU3                 55.00      0.93      5.22
  TU30                 0.00      0.00      0.00
  TU31                -0.00      0.00      0.00
  TU32                 0.00      0.00      0.00
  TU33                 0.00      0.00      0.00
  TU34                 0.00      0.00      0.00
  TU35                 0.00      0.00      0.00
  TU36                 0.00      0.00      0.00
  TU37                 0.00      0.00      0.00
  TU38                59.00      0.17      0.08
  TU39                -0.00      0.00      0.00
  TU4                 -0.00      0.00      0.00
  TU40                -0.00      0.00      0.00
  TU41                59.00      0.13      0.05
  TU42                 0.00      0.00      0.00
  TU43               121.00      0.17      0.06
  TU44               121.00      0.17      0.06
  TU45               121.00      0.17      0.06
  TU46               121.00      0.17      0.06
  TU47                -0.00      0.00      0.00
  TU48               148.00      1.95     17.60
  TU49               148.00      1.25      5.93
  TU5                 55.00      0.08      0.01
  TU50                 0.00      0.00      0.00
  TU52               148.00      0.49      0.62
  TU53               148.00      0.49      0.62
  TU54                 0.00      0.00      0.00
  TU55               148.00      0.49      0.62
  TU56                 0.00      0.00      0.00
  TU57               148.00      0.42      0.43
  TU58                56.00      1.00      6.18
  TU59               204.00      0.58      0.76
  TU6                121.00      0.17      0.06
  TU61                -0.00      0.00      0.00
  TU62                95.00      0.50      0.87
  TU63                 0.00      0.00      0.00
  TU65                52.00      1.07      7.72
  TU66               147.00      0.49      0.61
  TU67               147.00      0.42      0.42
  TU68               147.00      0.42      0.42
  TU69               351.00      0.50      0.38
  TU7                133.00      2.24     26.39
  TU70               351.00      0.50      0.38
  TU71               351.00      0.50      0.38
  TU72                 0.00      0.00      0.00
  TU73               162.00      0.36      0.28
  TU74               229.00      0.51      0.52
  TU75               229.00      0.51      0.52
  TU76               308.00      0.68      0.88
  TU77               364.00      0.80      1.20
  TU78                 0.00      0.00      0.00
  TU79                 0.00      0.00      0.00
  TU8                  0.00      0.00      0.00
  TU80                 0.00      0.00      0.00
  TU81                 0.00      0.00      0.00
  TU82                 0.00      0.00      0.00
  TU83                 0.00      0.00      0.00
  TU84                 0.00      0.00      0.00
  TU85                 0.00      0.00      0.00
  TU86                 0.00      0.00      0.00
  TU87                 0.00      0.00      0.00
  TU88                 0.00      0.00      0.00
  TU89                56.00      1.00      6.18
  TU9                 54.00      0.91      5.05
  TU90                 0.00      0.00      0.00
  TU91                56.00      0.64      2.11
  TU92               212.00      0.97      2.61
  TU93               212.00      0.60      0.82
  TU94                84.00      0.96      4.41
  TU95               296.00      0.84      1.51
  TU96                 0.00      0.00      0.00
  TU97                 0.00      0.00      0.00
  TU98                 0.00      0.00      0.00
  TU99               296.00      0.65      0.82
  TU4000              74.00      0.97      4.93
  TU60                 0.00      0.00      0.00
  TU64                95.00      0.50      0.87
  TU51               148.00      0.79      1.94
  2                   95.00      1.96     36.00
  3                  148.00      3.05      0.00
   
  Analysis ended Fri Sep  8 13:20:34 2023
