  Page 1                                    Fri Sep  8 13:18:07 2023

  ******************************************************************
  *                           E P A N E T                          *
  *                   Hydraulic and Water Quality                  *
  *                   Analysis for Pipe Networks                   *
  *                         Version 2.2                            *
  ******************************************************************
  
  Analysis begun Fri Sep  8 13:18:07 2023

   
  Node Results:
  ----------------------------------------------
                     Demand      Head  Pressure
  Node                 m3/h         m         m
  ----------------------------------------------
  3661                 0.00    428.97     50.83
  482                  0.00    428.96     82.96
  661                  0.00    426.31     96.31
  6610                 0.00    428.48     68.48
  6611                 0.00    427.60     92.60
  6612                 0.00    428.55     66.18
  6613                 0.00    426.98     71.98
  6615                 0.00    426.20     87.20
  6616                 0.00    426.35     65.35
  6617                 0.00    426.37     83.37
  6618                 0.00    426.38     78.38
  662                  0.00    428.79    100.79
  6620                 0.00    426.32    118.32
  6621                 0.00    426.32     98.32
  6622                 0.00    426.32     89.32
  6623                 0.00    426.32     75.32
  6624                 0.00    426.32     74.32
  6625                 0.00    390.00     78.00
  6626                 0.00    426.18    105.18
  6627                 0.00    425.97    104.97
  6628                 0.00    428.79     89.79
  6629                 0.00    428.79     88.79
  663                  0.00    428.64     87.64
  6630                 0.00    428.79     88.99
  6632                 0.00    428.79     88.79
  6633                 0.00    428.93     66.29
  6634                 0.00    428.94     57.94
  6635                 0.00    428.97     76.97
  6636                 0.00    428.97     72.97
  6637                 0.00    428.96     61.96
  6639                 0.00    428.51     68.51
  664                  0.00    428.43     80.43
  6640                 0.00    428.48     68.48
  6641                 0.00    428.54     69.86
  6642                 0.00    428.54     72.54
  6643                 0.00    428.58     76.58
  6644                 0.00    428.60     76.60
  6645                 0.00    428.60     78.60
  6646                 0.00    427.42     80.40
  6648                 0.00    427.56     81.55
  6649                 0.00    427.91     88.91
  665                  0.00    428.32     83.32
  666                  0.00    428.79     88.79
  6665                 0.00    428.92     63.78
  6666                 0.00    428.94     61.28
  667                  0.00    428.60     76.60
  668                  0.00    426.31     96.31
  669                  0.00    428.79     83.79
  1                   69.00    428.86     98.86
  10                  73.00    428.12     76.12
  100                  0.00    428.54     73.54
  100B                70.00    428.12     70.12
  101                  0.00    426.98     73.98
  103                  0.00    427.81     88.81
  104                  0.00    427.81     88.81
  105                 82.00    426.95     71.95
  106                 53.00    426.90     71.90
  107                  0.00    426.20     87.20
  108                 62.00    425.27     86.71
  109                  0.00    425.99     88.99
  11B                 51.00    428.28     85.28
  110                  0.00    426.37     80.37
  111                 57.00    426.37     87.59
  112                  0.00    426.37     84.37
  113                  0.00    426.37    103.37
  114                  0.00    426.37     78.37
  115                  0.00    426.37     80.37
  116                  0.00    426.37     81.37
  117                  0.00    426.37     83.37
  118                  0.00    426.37     87.37
  119                  0.00    426.37    103.56
  12                   0.00    428.10     97.76
  121                  0.00    426.37     77.57
  122                  0.00    426.37     78.47
  123                  0.00    426.37     80.37
  125                  0.00    426.37     75.37
  126                  0.00    426.37     78.37
  127                  0.00    426.37     83.04
  128                  0.00    426.35     64.35
  129                  0.00    426.33     70.33
  130                  0.00    426.32     85.24
  130B                 0.00    426.33     73.33
  132                  0.00    426.31     93.31
  134                 58.00    425.70    104.70
  135                  0.00    425.97    109.97
  137                  0.00    425.97    116.97
  139                  0.00    426.31     66.31
  14                  93.00    427.81     89.81
  140                  0.00    426.31     75.31
  141                  0.00    426.31     74.31
  142                  0.00    426.31     65.31
  143                  0.00    426.31     85.34
  144                  0.00    426.34     67.34
  146                  0.00    426.25     80.25
  147                  0.00    426.18    105.18
  148                  0.00    426.24     93.24
  149                  0.00    390.00     76.79
  15                   0.00    427.60     92.60
  150                 95.00    389.78     81.71
  151                  0.00    389.78     84.54
  152                  0.00    389.78     79.76
  153                  0.00    389.78     79.78
  154                  0.00    426.32    101.32
  157                  0.00    426.32    123.32
  158A                 0.00    426.32    105.32
  158B                 0.00    426.32    105.32
  16B                  0.00    427.85     93.85
  160                  0.00    428.96     61.96
  162                  0.00    428.95     60.95
  163                  0.00    428.94     54.94
  164                  0.00    428.93     69.27
  165                  0.00    428.92     67.62
  166                  0.00    428.92     67.91
  167                  0.00    428.92     58.28
  169                 57.00    428.83     62.33
  17A                  0.00    427.43     92.43
  170                  0.00    428.96     69.96
  17B                  0.00    427.25     92.25
  171                  0.00    428.97     76.97
  172                  0.00    428.97     88.97
  18B                210.00    421.95     96.95
  19                   0.00    428.93     70.93
  2                    0.00    428.81    102.81
  20                   0.00    428.97     64.97
  2002                 0.00    428.79     78.79
  2003                 0.00    428.79     78.79
  21                   0.00    426.41     64.81
  22                   0.00    426.41     64.81
  222                  0.00    426.40     76.40
  24                   0.00    426.39     82.39
  25                   0.00    426.38     81.38
  26                   0.00    426.38     78.38
  27                   0.00    426.38     76.38
  28                   0.00    426.37     76.37
  29                   0.00    426.35     70.35
  3                    0.00    428.72     88.37
  30                   0.00    426.35     65.35
  3002                 0.00    428.97     42.97
  3004                 0.00    428.97     42.97
  3005                 0.00    428.97     42.97
  3008                 0.00    428.97     43.97
  3012                 0.00    428.97     58.24
  3013                 0.00    428.97     64.04
  3016                 0.00    428.97     63.97
  3017                 0.00    428.97     46.97
  3018                 0.00    428.97     51.97
  3019                 0.00    428.97     59.58
  3020                 0.00    428.97     60.86
  3024                 0.00    428.97     64.03
  31                   0.00    426.33     68.54
  3152                 0.00    428.97     62.77
  32                   0.00    426.34     68.34
  34                   0.00    426.32     75.30
  35                   0.00    426.32     89.32
  36                   0.00    426.32     98.32
  39                   0.00    426.32    113.32
  41                   0.00    426.32    119.32
  46                   0.00    428.97     52.97
  47                   0.00    428.92     70.74
  48                   0.00    428.96     84.96
  49                   0.00    428.96     76.96
  5                    0.00    428.68     81.68
  52                   0.00    428.96     77.96
  53                   0.00    428.94     72.94
  54                   0.00    428.91     83.91
  55                   0.00    428.86     98.86
  56                   0.00    428.86     94.86
  58                   0.00    428.86     95.86
  59                   0.00    428.86     99.86
  6                    0.00    428.60     76.60
  60                   0.00    426.32     81.32
  61                  81.00    425.16     86.16
  62                   0.00    428.60     74.60
  64                   0.00    428.79     97.79
  65                   0.00    428.79     88.79
  66                   0.00    428.79     89.79
  67                   0.00    428.79     96.79
  68                   0.00    428.79     89.79
  69                   0.00    428.79     77.79
  7                    0.00    428.52     75.52
  70                   0.00    428.79     88.79
  71                   0.00    428.79     91.79
  72                   0.00    428.60     72.60
  73                   0.00    428.58     73.58
  77                   0.00    428.60     72.60
  78                   0.00    428.60     88.46
  79                  50.00    428.52     75.52
  8                    0.00    428.60     78.60
  80                   0.00    428.41     79.41
  81                   0.00    427.56     68.56
  82                  91.00    427.01     69.01
  85                   0.00    428.79     89.79
  86                   0.00    428.79     91.79
  87                   0.00    428.56     68.56
  88                  58.00    424.05     71.05
  89                   0.00    428.54     61.54
  90                   0.00    428.54     72.54
  91                   0.00    428.51     56.51
  92                   0.00    428.48     68.48
  91B                  0.00    428.48     68.48
  94                   0.00    427.91     88.91
  95                   0.00    426.99     83.99
  97                   0.00    426.38     95.38
  99                   0.00    428.54     78.54
  74                   0.00    428.58     69.87
  1074                 0.00    428.58     70.58
  11A                161.00    426.09     83.09
  1011                 0.00    426.38     83.38
  4                    0.00    426.00    114.00
  9                    0.00    426.32    116.32
  0                -1199.00    429.00      0.00  Reservoir
  balsa             -272.00    426.41     -0.00  Reservoir
   
   
  Link Results:
  ----------------------------------------------
                       Flow  Velocity  Headloss
  Link                 m3/h       m/s    /1000m
  ----------------------------------------------
  TU1                 -0.00      0.00      0.00
  TU10                82.00      0.89      3.69
  TU100                0.00      0.00      0.00
  TU101                0.00      0.00      0.00
  TU102               -0.00      0.00      0.00
  TU103                0.00      0.00      0.00
  TU104                0.00      0.00      0.00
  TU105              992.00      0.43      0.15
  TU106              992.00      0.43      0.15
  TU107                0.00      0.00      0.00
  TU108             1073.00      0.47      0.17
  TU109             1073.00      0.47      0.17
  TU11               135.00      0.62      1.14
  TU110             1073.00      0.47      0.17
  TU111                0.00      0.00      0.00
  TU112               -0.00      0.00      0.00
  TU113                0.00      0.00      0.00
  TU114                0.00      0.00      0.00
  TU115             1142.00      0.40      0.11
  TU116             1142.00      0.40      0.11
  TU117               -0.00      0.00      0.00
  TU118                0.00      0.00      0.00
  TU119             1142.00      0.40      0.11
  TU12                 0.00      0.00      0.00
  TU120             1142.00      0.40      0.11
  TU121               -0.00      0.00      0.00
  TU122                0.00      0.00      0.00
  TU123               -0.00      0.00      0.00
  TU124                0.00      0.00      0.00
  TU125               -0.00      0.00      0.00
  TU126               -0.00      0.00      0.00
  TU127               -0.00      0.00      0.00
  TU128                0.00      0.00      0.00
  TU129                0.00      0.00      0.00
  TU13                 0.00      0.00      0.00
  TU130               -0.00      0.00      0.00
  TU131               -0.00      0.00      0.00
  TU132               57.00      0.25      0.21
  TU133               57.00      0.25      0.21
  TU134               -0.00      0.00      0.00
  TU135               57.00      0.13      0.04
  TU136               57.00      0.13      0.04
  TU137               57.00      0.08      0.01
  TU138               57.00      0.08      0.01
  TU139               57.00      0.06      0.01
  TU14               228.00      0.50      0.51
  TU140               57.00      0.06      0.01
  TU141                0.00      0.00      0.00
  TU142                0.00      0.00      0.00
  TU143               -0.00      0.00      0.00
  TU144               70.00      0.76      2.77
  TU145               -0.00      0.00      0.00
  TU146               70.00      0.30      0.31
  TU147               70.00      0.19      0.10
  TU148               -0.00      0.00      0.00
  TU149               -0.00      0.00      0.00
  TU15                -0.00      0.00      0.00
  TU150               -0.00      0.00      0.00
  TU151               70.00      0.10      0.02
  TU152               -0.00      0.00      0.00
  TU15301            128.00      0.18      0.06
  TU15302            128.00      0.18      0.06
  TU1074               0.00      0.00      0.00
  TU154              128.00      0.13      0.03
  TU155               73.00      1.23      8.75
  TU156              201.00      0.20      0.06
  TU157              201.00      0.20      0.06
  TU158                0.00      0.00      0.00
  TU159              201.00      0.20      0.06
  TU16              1199.00      0.22      0.02
  TU160                0.00      0.00      0.00
  TU161              201.00      0.20      0.06
  TU162              791.00      0.57      0.33
  TU163              741.00      0.53      0.29
  TU164              791.00      0.57      0.33
  TU166               -0.00      0.00      0.00
  TU167               91.00      1.20      7.20
  TU168               91.00      1.20      7.20
  TU169               91.00      0.77      2.44
  TU17                62.00      1.10      7.44
  TU170               91.00      0.42      0.56
  TU171              650.00      0.47      0.23
  TU17201            161.00      2.12     20.56
  TU17202              0.00      0.00      0.00
  TU1011A            161.00      2.12     20.56
  TU173              161.00      1.18      4.91
  TU174               -0.00      0.00      0.00
  TU175              161.00      0.74      1.58
  TU176              438.00      0.43      0.24
  TU177              489.00      0.48      0.29
  TU178              438.00      0.43      0.24
  TU179              210.00      0.60      0.81
  TU18                62.00      0.71      2.54
  TU180              210.00      0.60      0.81
  TU181              210.00      1.77     11.28
  TU182              210.00      0.96      2.56
  TU183               81.00      0.92      4.13
  TU184                0.00      0.00      0.00
  TU185               -0.00      0.00      0.00
  TU186               57.00      0.15      0.07
  TU187               57.00      0.13      0.04
  TU188              210.00      0.15      0.03
  TU189              210.00      0.15      0.03
  TU19                 0.00      0.00      0.00
  TU190               -0.00      0.00      0.00
  TU191               81.00      1.44     12.13
  TU192                0.00      0.00      0.00
  TU193                0.00      0.00      0.00
  TU194               -0.00      0.00      0.00
  TU195                0.00      0.00      0.00
  TU196                0.00      0.00      0.00
  TU197               -0.00      0.00      0.00
  TU198                0.00      0.00      0.00
  TU199                0.00      0.00      0.00
  TU2                  0.00      0.00      0.00
  TU20                62.00      0.45      0.87
  TU200               -0.00      0.00      0.00
  TU201                0.00      0.00      0.00
  TU203                0.00      0.00      0.00
  TU204                0.00      0.00      0.00
  TU205                0.00      0.00      0.00
  TU21                -0.00      0.00      0.00
  TU22               272.00      0.15      0.03
  TU23               272.00      0.15      0.02
  TU24               272.00      0.15      0.03
  TU25               272.00      0.15      0.00
  TU26               153.00      0.15      0.04
  TU27               153.00      0.15      0.04
  TU28               153.00      0.15      0.04
  TU29               153.00      0.15      0.04
  TU3                 58.00      0.98      5.75
  TU30                 0.00      0.00      0.00
  TU31                -0.00      0.00      0.00
  TU32                 0.00      0.00      0.00
  TU33                 0.00      0.00      0.00
  TU34                 0.00      0.00      0.00
  TU35                 0.00      0.00      0.00
  TU36                 0.00      0.00      0.00
  TU37                 0.00      0.00      0.00
  TU38                 0.00      0.00      0.00
  TU39                -0.00      0.00      0.00
  TU4                 70.00      0.10      0.02
  TU40                -0.00      0.00      0.00
  TU41                -0.00      0.00      0.00
  TU42                 0.00      0.00      0.00
  TU43                57.00      0.08      0.01
  TU44                57.00      0.08      0.01
  TU45                57.00      0.08      0.01
  TU46                57.00      0.08      0.01
  TU47                -0.00      0.00      0.00
  TU48                 0.00      0.00      0.00
  TU49                 0.00      0.00      0.00
  TU5                128.00      0.18      0.06
  TU50                 0.00      0.00      0.00
  TU52                 0.00      0.00      0.00
  TU53                 0.00      0.00      0.00
  TU54                 0.00      0.00      0.00
  TU55                 0.00      0.00      0.00
  TU56                 0.00      0.00      0.00
  TU57                 0.00      0.00      0.00
  TU58                 0.00      0.00      0.00
  TU59                 0.00      0.00      0.00
  TU6                 -0.00      0.00      0.00
  TU61                 0.00      0.00      0.00
  TU62                95.00      0.50      0.87
  TU63                 0.00      0.00      0.00
  TU65                 0.00      0.00      0.00
  TU66                95.00      0.31      0.28
  TU67                95.00      0.27      0.19
  TU68                95.00      0.27      0.19
  TU69                95.00      0.13      0.04
  TU7                  0.00      0.00      0.00
  TU70                95.00      0.13      0.04
  TU71                95.00      0.13      0.04
  TU72                58.00      0.13      0.04
  TU73                58.00      0.13      0.04
  TU74                58.00      0.13      0.04
  TU75                58.00      0.13      0.04
  TU76                58.00      0.13      0.04
  TU77                58.00      0.13      0.04
  TU78                 0.00      0.00      0.00
  TU79                 0.00      0.00      0.00
  TU8                  0.00      0.00      0.00
  TU80                58.00      1.20      9.42
  TU81                58.00      0.49      1.08
  TU82                 0.00      0.00      0.00
  TU83                 0.00      0.00      0.00
  TU84                 0.00      0.00      0.00
  TU85                 0.00      0.00      0.00
  TU86                 0.00      0.00      0.00
  TU87                 0.00      0.00      0.00
  TU88                 0.00      0.00      0.00
  TU89                 0.00      0.00      0.00
  TU9                 53.00      0.89      4.88
  TU90                 0.00      0.00      0.00
  TU91                -0.00      0.00      0.00
  TU92                -0.00      0.00      0.00
  TU93                 0.00      0.00      0.00
  TU94                 0.00      0.00      0.00
  TU95                 0.00      0.00      0.00
  TU96                 0.00      0.00      0.00
  TU97                 0.00      0.00      0.00
  TU98                 0.00      0.00      0.00
  TU99                 0.00      0.00      0.00
  TU4000               0.00      0.00      0.00
  TU60                -0.00      0.00      0.00
  TU64                95.00      0.50      0.87
  TU51                 0.00      0.00      0.00
  2                   95.00      1.96     36.00  PBV
  3                    0.00      0.00      0.00  PBV
   
  Analysis ended Fri Sep  8 13:18:07 2023
