  Page 1                                    Fri Sep  8 13:13:47 2023

  ******************************************************************
  *                           E P A N E T                          *
  *                   Hydraulic and Water Quality                  *
  *                   Analysis for Pipe Networks                   *
  *                         Version 2.2                            *
  ******************************************************************
  
  Analysis begun Fri Sep  8 13:13:47 2023

   
  Node Results:
  ----------------------------------------------
                     Demand      Head  Pressure
  Node                 m3/h         m         m
  ----------------------------------------------
  3661                 0.00    428.98     50.84
  482                  0.00    428.76     82.76
  661                  0.00    426.67     96.67
  6610                 0.00    428.53     68.53
  6611                 0.00    428.73     93.73
  6612                 0.00    428.60     66.23
  6613                 0.00    427.71     72.71
  6615                 0.00    426.69     87.69
  6616                 0.00    426.67     65.67
  6617                 0.00    426.68     83.68
  6618                 0.00    426.68     78.68
  662                  0.00    428.89    100.89
  6620                 0.00    426.66    118.66
  6621                 0.00    426.66     98.66
  6622                 0.00    426.66     89.66
  6623                 0.00    426.66     75.66
  6624                 0.00    426.66     74.66
  6625                 0.00    390.66     78.66
  6626                 0.00    426.66    105.66
  6627                 0.00    426.67    105.67
  6628                 0.00    428.88     89.88
  6629                 0.00    428.88     88.88
  663                  0.00    428.83     87.83
  6630                 0.00    428.88     89.08
  6632                 0.00    428.88     88.88
  6633                 0.00    428.96     66.32
  6634                 0.00    428.97     57.97
  6635                 0.00    428.97     76.97
  6636                 0.00    428.97     72.97
  6637                 0.00    428.97     61.97
  6639                 0.00    428.53     68.53
  664                  0.00    428.80     80.80
  6640                 0.00    428.53     68.53
  6641                 0.00    428.53     69.85
  6642                 0.00    428.47     72.47
  6643                 0.00    428.71     76.71
  6644                 0.00    428.75     76.75
  6645                 0.00    428.76     78.76
  6646                 0.00    428.80     81.78
  6648                 0.00    428.80     82.79
  6649                 0.00    428.80     89.80
  665                  0.00    428.80     83.80
  666                  0.00    428.88     88.88
  6665                 0.00    428.97     63.83
  6666                 0.00    428.97     61.31
  667                  0.00    428.74     76.74
  668                  0.00    426.67     96.67
  669                  0.00    428.88     83.88
  1                   73.00    428.93     98.93
  10                  74.00    428.23     76.23
  100                108.00    428.45     73.45
  100B                 0.00    428.53     70.53
  101                 96.00    427.43     74.43
  103                  0.00    428.71     89.71
  104                  0.00    428.71     89.71
  105                  0.00    427.71     72.71
  106                 53.00    427.64     72.64
  107                  0.00    426.69     87.69
  108                  0.00    426.69     88.13
  109                  0.00    426.69     89.69
  11B                  0.00    428.79     85.79
  110                  0.00    426.68     80.68
  111                  0.00    426.68     87.90
  112                  0.00    426.68     84.68
  113                  0.00    426.68    103.68
  114                  0.00    426.68     78.68
  115                  0.00    426.68     80.68
  116                  0.00    426.68     81.68
  117                  0.00    426.68     83.68
  118                  0.00    426.68     87.68
  119                  0.00    426.68    103.87
  12                   0.00    428.77     98.43
  121                  0.00    426.68     77.88
  122                  0.00    426.68     78.78
  123                  0.00    426.68     80.68
  125                  0.00    426.68     75.68
  126                  0.00    426.68     78.68
  127                  0.00    426.68     83.35
  128                  0.00    426.67     64.67
  129                  0.00    426.67     70.67
  130                  0.00    426.67     85.59
  130B                 0.00    426.67     73.67
  132                  0.00    426.67     93.67
  134                  0.00    426.67    105.67
  135                  0.00    426.67    110.67
  137                  0.00    426.67    117.67
  139                  0.00    426.67     66.67
  14                   0.00    428.71     90.71
  140                  0.00    426.67     75.67
  141                  0.00    426.67     74.67
  142                  0.00    426.67     65.67
  143                  0.00    426.67     85.70
  144                  0.00    426.67     67.67
  146                  0.00    426.66     80.66
  147                  0.00    426.66    105.66
  148                  0.00    426.66     93.66
  149                  0.00    390.66     77.45
  15                   0.00    428.73     93.73
  150                  0.00    390.66     82.59
  151                  0.00    390.66     85.42
  152                  0.00    390.66     80.64
  153                  0.00    390.66     80.66
  154                  0.00    426.66    101.66
  157                  0.00    426.66    123.66
  158A                 0.00    426.66    105.66
  158B                 0.00    426.66    105.66
  16B                  0.00    428.73     94.73
  160                  0.00    428.97     61.97
  162                  0.00    428.97     60.97
  163                  0.00    428.97     54.97
  164                  0.00    428.97     69.31
  165                  0.00    428.97     67.67
  166                  0.00    428.97     67.96
  167                  0.00    428.97     58.33
  169                  0.00    428.97     62.47
  17A                  0.00    428.73     93.73
  170                  0.00    428.97     69.97
  17B                  0.00    428.73     93.73
  171                  0.00    428.97     76.97
  172                  0.00    428.97     88.97
  18B                  0.00    428.73    103.73
  19                   0.00    428.96     70.96
  2                    0.00    428.90    102.90
  20                   0.00    428.98     64.98
  2002                 0.00    428.88     78.88
  2003                 0.00    428.88     78.88
  21                   0.00    426.69     65.09
  22                   0.00    426.69     65.09
  222                  0.00    426.69     76.69
  24                   0.00    426.69     82.69
  25                   0.00    426.69     81.69
  26                   0.00    426.68     78.68
  27                   0.00    426.68     76.68
  28                   0.00    426.68     76.68
  29                  56.00    426.67     70.67
  3                    0.00    428.86     88.51
  30                   0.00    426.67     65.67
  3002                 0.00    428.98     42.98
  3004                 0.00    428.98     42.98
  3005                 0.00    428.98     42.98
  3008                 0.00    428.98     43.98
  3012                 0.00    428.98     58.25
  3013                 0.00    428.98     64.05
  3016                 0.00    428.98     63.98
  3017                 0.00    428.98     46.98
  3018                 0.00    428.98     51.98
  3019                 0.00    428.98     59.59
  3020                 0.00    428.98     60.87
  3024                 0.00    428.98     64.04
  31                  55.00    426.66     68.87
  3152                 0.00    428.98     62.78
  32                   0.00    426.66     68.66
  34                   0.00    426.66     75.64
  35                   0.00    426.66     89.66
  36                   0.00    426.66     98.66
  39                   0.00    426.66    113.66
  41                   0.00    426.66    119.66
  46                   0.00    428.98     52.98
  47                   0.00    428.97     70.79
  48                   0.00    428.68     84.68
  49                   0.00    428.02     76.02
  5                    0.00    428.84     81.84
  52                  71.00    428.00     77.00
  53                   0.00    428.97     72.97
  54                   0.00    428.95     83.95
  55                   0.00    428.93     98.93
  56                   0.00    428.93     94.93
  58                   0.00    428.93     95.93
  59                   0.00    428.93     99.93
  6                    0.00    428.75     76.75
  60                   0.00    426.51     81.51
  61                  80.00    425.38     86.38
  62                   0.00    428.74     74.74
  64                   0.00    428.89     97.89
  65                   0.00    428.88     88.88
  66                   0.00    428.88     89.88
  67                  50.00    428.88     96.88
  68                   0.00    428.88     89.88
  69                   0.00    428.88     77.88
  7                   71.00    428.81     75.81
  70                   0.00    428.88     88.88
  71                   0.00    428.88     91.88
  72                   0.00    428.74     72.74
  73                   0.00    428.70     73.70
  77                   0.00    428.74     72.74
  78                   0.00    428.74     88.60
  79                  61.00    428.81     75.81
  8                    0.00    428.76     78.76
  80                   0.00    428.80     79.80
  81                   0.00    428.80     69.80
  82                   0.00    428.80     70.80
  85                   0.00    428.88     89.88
  86                   0.00    428.88     91.88
  87                   0.00    428.63     68.63
  88                   0.00    428.60     75.60
  89                   0.00    428.54     61.54
  90                   0.00    428.47     72.47
  91                   0.00    428.53     56.53
  92                   0.00    428.53     68.53
  91B                  0.00    428.53     68.53
  94                   0.00    428.80     89.80
  95                   0.00    428.80     85.80
  97                   0.00    428.80     97.80
  99                 134.00    426.27     76.27
  74                   0.00    428.69     69.98
  1074                 0.00    428.69     70.69
  11A                  0.00    428.80     85.80
  1011                 0.00    428.80     85.80
  4                    0.00    426.66    114.66
  9                    0.00    426.66    116.66
  0                 -871.00    429.00      0.00  Reservoir
  balsa             -111.00    426.69     -0.00  Reservoir
   
   
  Link Results:
  ----------------------------------------------
                       Flow  Velocity  Headloss
  Link                 m3/h       m/s    /1000m
  ----------------------------------------------
  TU1                 -0.00      0.00      0.00
  TU10                 0.00      0.00      0.00
  TU100               50.00      0.11      0.03
  TU101               50.00      0.07      0.01
  TU102                0.00      0.00      0.00
  TU103               50.00      0.07      0.01
  TU104               50.00      0.07      0.01
  TU105              597.00      0.26      0.06
  TU106              597.00      0.26      0.06
  TU107                0.00      0.00      0.00
  TU108              677.00      0.30      0.07
  TU109              727.00      0.32      0.08
  TU11               149.00      0.68      1.37
  TU110              727.00      0.32      0.08
  TU111                0.00      0.00      0.00
  TU112               -0.00      0.00      0.00
  TU113                0.00      0.00      0.00
  TU114                0.00      0.00      0.00
  TU115              800.00      0.28      0.06
  TU116              800.00      0.28      0.06
  TU117               -0.00      0.00      0.00
  TU118                0.00      0.00      0.00
  TU119              800.00      0.28      0.06
  TU12                 0.00      0.00      0.00
  TU120              800.00      0.28      0.06
  TU121                0.00      0.00      0.00
  TU122                0.00      0.00      0.00
  TU123               -0.00      0.00      0.00
  TU124               71.00      0.81      3.25
  TU125               71.00      0.52      1.11
  TU126               71.00      0.32      0.36
  TU127               71.00      0.32      0.36
  TU128                0.00      0.00      0.00
  TU129                0.00      0.00      0.00
  TU13                 0.00      0.00      0.00
  TU130               -0.00      0.00      0.00
  TU131               -0.00      0.00      0.00
  TU132                0.00      0.00      0.00
  TU133               -0.00      0.00      0.00
  TU134               -0.00      0.00      0.00
  TU135               -0.00      0.00      0.00
  TU136                0.00      0.00      0.00
  TU137               71.00      0.10      0.02
  TU138               71.00      0.10      0.02
  TU139               71.00      0.07      0.01
  TU14               149.00      0.33      0.24
  TU140               71.00      0.07      0.01
  TU141                0.00      0.00      0.00
  TU142                0.00      0.00      0.00
  TU143               -0.00      0.00      0.00
  TU144               -0.00      0.00      0.00
  TU145               -0.00      0.00      0.00
  TU146               -0.00      0.00      0.00
  TU147               -0.00      0.00      0.00
  TU148               -0.00      0.00      0.00
  TU149              108.00      0.75      2.08
  TU15                -0.00      0.00      0.00
  TU150              108.00      0.75      2.08
  TU151              108.00      0.15      0.05
  TU152              134.00      1.53     10.38
  TU15301            242.00      0.34      0.19
  TU15302            242.00      0.34      0.19
  TU1074               0.00      0.00      0.00
  TU154              242.00      0.24      0.08
  TU155               74.00      1.24      8.97
  TU156              316.00      0.31      0.13
  TU157              316.00      0.31      0.13
  TU158                0.00      0.00      0.00
  TU159              316.00      0.31      0.13
  TU16               871.00      0.16      0.01
  TU160                0.00      0.00      0.00
  TU161              316.00      0.31      0.13
  TU162              281.00      0.20      0.05
  TU163              149.00      0.11      0.02
  TU164              210.00      0.15      0.03
  TU166               -0.00      0.00      0.00
  TU167               -0.00      0.00      0.00
  TU168                0.00      0.00      0.00
  TU169                0.00      0.00      0.00
  TU17                -0.00      0.00      0.00
  TU170                0.00      0.00      0.00
  TU171              149.00      0.11      0.02
  TU17201             -0.00      0.00      0.00
  TU17202              0.00      0.00      0.00
  TU1011A             -0.00      0.00      0.00
  TU173               -0.00      0.00      0.00
  TU174               -0.00      0.00      0.00
  TU175               -0.00      0.00      0.00
  TU176              149.00      0.15      0.03
  TU177              149.00      0.15      0.03
  TU178              149.00      0.15      0.03
  TU179                0.00      0.00      0.00
  TU18                 0.00      0.00      0.00
  TU180                0.00      0.00      0.00
  TU181                0.00      0.00      0.00
  TU182                0.00      0.00      0.00
  TU183               80.00      0.91      4.04
  TU184                0.00      0.00      0.00
  TU185               -0.00      0.00      0.00
  TU186               -0.00      0.00      0.00
  TU187               -0.00      0.00      0.00
  TU188              111.00      0.08      0.01
  TU189              111.00      0.08      0.01
  TU19                 0.00      0.00      0.00
  TU190               -0.00      0.00      0.00
  TU191               80.00      1.42     11.86
  TU192                0.00      0.00      0.00
  TU193                0.00      0.00      0.00
  TU194               -0.00      0.00      0.00
  TU195                0.00      0.00      0.00
  TU196                0.00      0.00      0.00
  TU197               -0.00      0.00      0.00
  TU198                0.00      0.00      0.00
  TU199                0.00      0.00      0.00
  TU2                  0.00      0.00      0.00
  TU20                -0.00      0.00      0.00
  TU200               -0.00      0.00      0.00
  TU201                0.00      0.00      0.00
  TU203                0.00      0.00      0.00
  TU204                0.00      0.00      0.00
  TU205                0.00      0.00      0.00
  TU21                -0.00      0.00      0.00
  TU22               111.00      0.06      0.01
  TU23               111.00      0.06      0.01
  TU24               111.00      0.06      0.00
  TU25               111.00      0.06      0.00
  TU26                55.00      0.05      0.00
  TU27                55.00      0.05      0.01
  TU28               111.00      0.11      0.02
  TU29               111.00      0.11      0.02
  TU3                  0.00      0.00      0.00
  TU30                 0.00      0.00      0.00
  TU31                -0.00      0.00      0.00
  TU32                 0.00      0.00      0.00
  TU33                 0.00      0.00      0.00
  TU34                 0.00      0.00      0.00
  TU35                 0.00      0.00      0.00
  TU36                 0.00      0.00      0.00
  TU37                 0.00      0.00      0.00
  TU38                 0.00      0.00      0.00
  TU39                -0.00      0.00      0.00
  TU4                242.00      0.34      0.19
  TU40                -0.00      0.00      0.00
  TU41                -0.00      0.00      0.00
  TU42                 0.00      0.00      0.00
  TU43                -0.00      0.00      0.00
  TU44                -0.00      0.00      0.00
  TU45                -0.00      0.00      0.00
  TU46                -0.00      0.00      0.00
  TU47                -0.00      0.00      0.00
  TU48                 0.00      0.00      0.00
  TU49                 0.00      0.00      0.00
  TU5                242.00      0.34      0.19
  TU50                 0.00      0.00      0.00
  TU52                 0.00      0.00      0.00
  TU53                 0.00      0.00      0.00
  TU54                 0.00      0.00      0.00
  TU55                 0.00      0.00      0.00
  TU56                -0.00      0.00      0.00
  TU57                 0.00      0.00      0.00
  TU58                 0.00      0.00      0.00
  TU59                 0.00      0.00      0.00
  TU6                 -0.00      0.00      0.00
  TU61                 0.00      0.00      0.00
  TU62                -0.00      0.00      0.00
  TU63                 0.00      0.00      0.00
  TU65                 0.00      0.00      0.00
  TU66                 0.00      0.00      0.00
  TU67                 0.00      0.00      0.00
  TU68                 0.00      0.00      0.00
  TU69                 0.00      0.00      0.00
  TU7                  0.00      0.00      0.00
  TU70                55.00      0.08      0.01
  TU71                55.00      0.08      0.01
  TU72                 0.00      0.00      0.00
  TU73                 0.00      0.00      0.00
  TU74                 0.00      0.00      0.00
  TU75                 0.00      0.00      0.00
  TU76                 0.00      0.00      0.00
  TU77                 0.00      0.00      0.00
  TU78                 0.00      0.00      0.00
  TU79                 0.00      0.00      0.00
  TU8                 96.00      1.04      4.92
  TU80                 0.00      0.00      0.00
  TU81                 0.00      0.00      0.00
  TU82                 0.00      0.00      0.00
  TU83                 0.00      0.00      0.00
  TU84                 0.00      0.00      0.00
  TU85                 0.00      0.00      0.00
  TU86                 0.00      0.00      0.00
  TU87                 0.00      0.00      0.00
  TU88                 0.00      0.00      0.00
  TU89                 0.00      0.00      0.00
  TU9                 53.00      0.89      4.88
  TU90                 0.00      0.00      0.00
  TU91                -0.00      0.00      0.00
  TU92                 0.00      0.00      0.00
  TU93                 0.00      0.00      0.00
  TU94                 0.00      0.00      0.00
  TU95                 0.00      0.00      0.00
  TU96                 0.00      0.00      0.00
  TU97                 0.00      0.00      0.00
  TU98                 0.00      0.00      0.00
  TU99                 0.00      0.00      0.00
  TU4000               0.00      0.00      0.00
  TU60                -0.00      0.00      0.00
  TU64                 0.00      0.00      0.00
  TU51                 0.00      0.00      0.00
  2                   -0.00      0.00     36.00
  3                    0.00      0.00      0.00
   
  Analysis ended Fri Sep  8 13:13:47 2023
