  Page 1                                    Fri Sep  8 13:14:37 2023

  ******************************************************************
  *                           E P A N E T                          *
  *                   Hydraulic and Water Quality                  *
  *                   Analysis for Pipe Networks                   *
  *                         Version 2.2                            *
  ******************************************************************
  
  Analysis begun Fri Sep  8 13:14:37 2023

   
  Node Results:
  ----------------------------------------------
                     Demand      Head  Pressure
  Node                 m3/h         m         m
  ----------------------------------------------
  3661                 0.00    428.83     50.69
  482                  0.00    428.30     82.30
  661                  0.00    422.85     92.85
  6610                 0.00    426.08     66.08
  6611                 0.00    425.46     90.46
  6612                 0.00    427.26     64.89
  6613                 0.00    423.63     68.63
  6615                 0.00    423.65     84.65
  6616                 0.00    423.48     62.48
  6617                 0.00    424.01     81.01
  6618                 0.00    424.16     76.16
  662                  0.00    428.10    100.10
  6620                 0.00    421.75    113.75
  6621                 0.00    422.69     94.69
  6622                 0.00    422.91     85.91
  6623                 0.00    423.13     72.13
  6624                 0.00    423.20     71.20
  6625                 0.00    386.78     74.78
  6626                 0.00    422.94    101.94
  6627                 0.00    422.48    101.48
  6628                 0.00    426.42     87.42
  6629                 0.00    427.70     87.70
  663                  0.00    427.69     86.69
  6630                 0.00    427.42     87.62
  6632                 0.00    427.93     87.93
  6633                 0.00    428.64     66.00
  6634                 0.00    428.70     57.70
  6635                 0.00    428.63     76.63
  6636                 0.00    428.63     72.63
  6637                 0.00    428.52     61.52
  6639                 0.00    426.88     66.88
  664                  0.00    427.24     79.24
  6640                 0.00    426.60     66.60
  6641                 0.00    427.10     68.42
  6642                 0.00    427.09     71.09
  6643                 0.00    427.47     75.47
  6644                 0.00    427.53     75.53
  6645                 0.00    427.56     77.56
  6646                 0.00    426.56     79.54
  6648                 0.00    426.56     80.55
  6649                 0.00    425.72     86.72
  665                  0.00    426.98     81.98
  666                  0.00    427.82     87.82
  6665                 0.00    428.00     62.86
  6666                 0.00    428.25     60.59
  667                  0.00    427.53     75.53
  668                  0.00    422.85     92.85
  669                  0.00    427.67     82.67
  1                   74.00    428.34     98.34
  10                   0.00    427.47     75.47
  100                 48.00    427.08     72.08
  100B                82.00    426.12     68.12
  101                 95.00    423.36     70.36
  103                 50.00    425.72     86.72
  104                  0.00    425.72     86.72
  105                 86.00    423.61     68.61
  106                 58.00    423.55     68.55
  107                 78.00    423.35     84.35
  108                 58.00    422.83     84.27
  109                  0.00    423.46     86.46
  11B                100.00    426.89     83.89
  110                 63.00    424.14     78.14
  111                 62.00    424.09     85.31
  112                  0.00    424.12     82.12
  113                  0.00    424.06    101.06
  114                  0.00    424.01     76.01
  115                  0.00    424.01     78.01
  116                  0.00    424.01     79.01
  117                  0.00    424.01     81.01
  118                  0.00    424.01     85.01
  119                  0.00    424.01    101.20
  12                   0.00    426.54     96.20
  121                 42.00    424.01     75.21
  122                  0.00    424.01     76.11
  123                  0.00    424.01     78.01
  125                  0.00    424.01     73.01
  126                 71.00    423.89     75.89
  127                  0.00    423.89     80.56
  128                 65.00    423.45     61.45
  129                  0.00    423.05     67.05
  130                184.00    422.86     81.78
  130B                70.00    422.95     69.95
  132                  0.00    422.85     89.85
  134                  0.00    422.48    101.48
  135                 61.00    421.83    105.83
  137                  0.00    421.83    112.83
  139                  0.00    422.85     62.85
  14                   0.00    426.00     88.00
  140                  0.00    422.85     71.85
  141                  0.00    422.85     70.85
  142                  0.00    422.85     61.85
  143                  0.00    422.85     81.88
  144                 75.00    423.24     64.24
  146                  0.00    423.02     77.02
  147                  0.00    422.94    101.94
  148                 67.00    423.00     90.00
  149                  0.00    386.78     73.57
  15                 181.00    425.01     90.01
  150                 89.00    386.59     78.52
  151                  0.00    386.59     81.35
  152                  0.00    386.59     76.57
  153                  0.00    386.59     76.59
  154                  0.00    422.59     97.59
  157                  0.00    421.75    118.75
  158A                80.00    408.29     87.29
  158B                80.00    408.26     87.26
  16B                  0.00    426.07     92.07
  160                  0.00    428.49     61.49
  162                  0.00    428.37     60.37
  163                 86.00    427.97     53.97
  164                 58.00    428.10     68.44
  165                  0.00    428.00     66.70
  166                 54.00    428.00     66.99
  167                  0.00    428.00     57.36
  169                 72.00    427.92     61.42
  17A                  0.00    425.35     90.35
  170                  0.00    428.58     69.58
  17B                160.00    425.25     90.25
  171                  0.00    428.63     76.63
  172                  0.00    428.63     88.63
  18B                  0.00    425.25    100.25
  19                   0.00    428.64     70.64
  2                    0.00    428.15    102.15
  20                   0.00    428.83     64.83
  2002                 0.00    427.67     77.67
  2003                 0.00    427.67     77.67
  21                   0.00    424.71     63.11
  22                   0.00    424.70     63.10
  222                 68.00    424.53     74.53
  24                   0.00    424.44     80.44
  25                   0.00    424.31     79.31
  26                   0.00    424.16     76.16
  27                   0.00    424.19     74.19
  28                   0.00    424.02     74.02
  29                  51.00    423.55     67.55
  3                   69.00    427.91     87.56
  30                   0.00    423.50     62.50
  3002                 0.00    428.83     42.83
  3004                 0.00    428.83     42.83
  3005                 0.00    428.83     42.83
  3008                 0.00    428.83     43.83
  3012                 0.00    428.83     58.10
  3013                 0.00    428.83     63.90
  3016                 0.00    428.83     63.83
  3017               144.00    428.83     46.83
  3018                68.00    428.46     51.46
  3019                 0.00    428.83     59.44
  3020                 0.00    428.83     60.72
  3024                 0.00    428.83     63.89
  31                   0.00    423.30     65.51
  3152                 0.00    428.83     62.63
  32                   0.00    423.38     65.38
  34                  55.00    423.02     72.00
  35                   0.00    422.91     85.91
  36                   0.00    422.69     94.69
  39                   0.00    422.28    109.28
  41                   0.00    421.44    114.44
  46                   0.00    428.69     52.69
  47                   0.00    428.06     69.88
  48                   0.00    428.22     84.22
  49                   0.00    427.55     75.55
  5                    0.00    427.80     80.80
  52                  72.00    427.52     76.52
  53                 142.00    425.62     69.62
  54                   0.00    428.53     83.53
  55                   0.00    427.09     97.09
  56                  57.00    426.48     92.48
  58                  91.00    422.78     89.78
  59                 170.00    418.78     89.78
  6                   60.00    427.32     75.32
  60                   0.00    425.34     80.34
  61                  84.00    424.11     85.11
  62                   0.00    427.53     73.53
  64                  66.00    428.01     97.01
  65                   0.00    427.93     87.93
  66                  73.00    427.93     88.93
  67                   0.00    427.86     95.86
  68                   0.00    427.42     88.42
  69                  59.00    426.63     75.63
  7                    0.00    427.44     74.44
  70                   0.00    427.59     87.59
  71                  68.00    426.53     89.53
  72                   0.00    427.53     71.53
  73                   0.00    427.46     72.46
  77                   0.00    427.53     71.53
  78                   0.00    427.53     87.39
  79                   0.00    427.44     74.44
  8                    0.00    427.56     77.56
  80                  97.00    427.15     78.15
  81                  75.00    424.57     65.57
  82                   0.00    426.56     68.56
  85                  56.00    426.18     87.18
  86                   0.00    426.42     89.42
  87                 116.00    427.30     67.30
  88                   0.00    427.26     74.26
  89                   0.00    427.17     60.17
  90                   0.00    427.09     71.09
  91                   0.00    426.88     54.88
  92                  44.00    426.05     66.05
  91B                107.00    425.95     65.95
  94                   0.00    425.72     86.72
  95                   0.00    422.88     79.88
  97                 139.00    414.65     83.65
  99                   0.00    427.17     77.17
  74                   0.00    427.45     68.74
  1074                 0.00    427.45     69.45
  11A                158.00    420.68     77.68
  1011                 0.00    420.95     77.95
  4                    0.00    422.78    110.78
  9                    0.00    421.75    111.75
  0                -3219.00    429.00      0.00  Reservoir
  balsa            -1319.00    424.71     -0.00  Reservoir
   
   
  Link Results:
  ----------------------------------------------
                       Flow  Velocity  Headloss
  Link                 m3/h       m/s    /1000m
  ----------------------------------------------
  TU1                 44.00      0.48      1.23
  TU10                86.00      0.93      4.02
  TU100              183.00      0.40      0.34
  TU101              256.00      0.36      0.22
  TU102                0.00      0.00      0.00
  TU103              256.00      0.36      0.21
  TU104              322.00      0.46      0.33
  TU105             1656.00      0.72      0.38
  TU106             1656.00      0.72      0.38
  TU107                0.00      0.00      0.00
  TU108             1809.00      0.79      0.44
  TU109             2131.00      0.93      0.60
  TU11               239.00      1.09      3.25
  TU110             2131.00      0.93      0.60
  TU111              170.00      2.24     22.74
  TU112              261.00      1.91     11.94
  TU113              318.00      1.69      7.90
  TU114              318.00      1.69      7.90
  TU115             2523.00      0.89      0.49
  TU116             2523.00      0.89      0.49
  TU117              142.00      1.53     10.07
  TU118                0.00      0.00      0.00
  TU119             2523.00      0.89      0.49
  TU12                 0.00      0.00      0.00
  TU120             2665.00      0.94      0.54
  TU121                0.00      0.00      0.00
  TU122                0.00      0.00      0.00
  TU123               -0.00      0.00      0.00
  TU124               72.00      0.82      3.33
  TU125               72.00      0.53      1.13
  TU126               72.00      0.33      0.37
  TU127               72.00      0.33      0.37
  TU128                0.00      0.00      0.00
  TU129                0.00      0.00      0.00
  TU13                50.00      0.37      0.59
  TU130               -0.00      0.00      0.00
  TU131               54.00      0.24      0.19
  TU132               72.00      0.31      0.33
  TU133              126.00      0.55      0.90
  TU134              107.00      1.16      5.99
  TU135              270.00      0.60      0.70
  TU136              270.00      0.60      0.70
  TU137              342.00      0.48      0.36
  TU138              342.00      0.48      0.36
  TU139              342.00      0.34      0.15
  TU14               289.00      0.64      0.79
  TU140              410.00      0.40      0.21
  TU141                0.00      0.00      0.00
  TU142                0.00      0.00      0.00
  TU143               -0.00      0.00      0.00
  TU144               82.00      0.89      3.69
  TU145              151.00      1.05      3.83
  TU146              233.00      1.01      2.75
  TU147              233.00      0.63      0.86
  TU148               -0.00      0.00      0.00
  TU149               48.00      0.33      0.48
  TU15                -0.00      0.00      0.00
  TU150               48.00      0.33      0.48
  TU151              281.00      0.40      0.25
  TU152               -0.00      0.00      0.00
  TU15301            397.00      0.56      0.48
  TU15302            397.00      0.56      0.48
  TU1074               0.00      0.00      0.00
  TU154              397.00      0.39      0.20
  TU155                0.00      0.00      0.00
  TU156              397.00      0.39      0.20
  TU157              397.00      0.39      0.20
  TU158               60.00      1.07      7.01
  TU159              457.00      0.45      0.26
  TU16              3219.00      0.58      0.15
  TU160                0.00      0.00      0.00
  TU161              457.00      0.45      0.26
  TU162             1199.00      0.87      0.71
  TU163             1199.00      0.87      0.71
  TU164             1199.00      0.87      0.71
  TU166               75.00      1.55     15.07
  TU167               -0.00      0.00      0.00
  TU168                0.00      0.00      0.00
  TU169               75.00      0.63      1.72
  TU17                58.00      1.03      6.59
  TU170              172.00      0.79      1.78
  TU171             1027.00      0.74      0.53
  TU17201            297.00      3.91     64.36
  TU17202            139.00      1.83     15.67
  TU1011A            158.00      2.08     19.86
  TU173              297.00      2.17     15.17
  TU174               -0.00      0.00      0.00
  TU175              297.00      1.36      4.84
  TU176              630.00      0.62      0.46
  TU177              730.00      0.72      0.60
  TU178              630.00      0.62      0.46
  TU179              341.00      0.97      1.95
  TU18                58.00      0.66      2.25
  TU180              160.00      0.45      0.49
  TU181                0.00      0.00      0.00
  TU182              160.00      0.73      1.56
  TU183               84.00      0.96      4.41
  TU184                0.00      0.00      0.00
  TU185              113.00      0.25      0.14
  TU186              184.00      0.50      0.56
  TU187              270.00      0.60      0.70
  TU188             1115.00      0.80      0.62
  TU189             1115.00      0.80      0.62
  TU19                78.00      1.39     11.32
  TU190               -0.00      0.00      0.00
  TU191               84.00      1.49     12.97
  TU192                0.00      0.00      0.00
  TU193                0.00      0.00      0.00
  TU194               -0.00      0.00      0.00
  TU195                0.00      0.00      0.00
  TU196                0.00      0.00      0.00
  TU197               -0.00      0.00      0.00
  TU198                0.00      0.00      0.00
  TU199                0.00      0.00      0.00
  TU2                181.00      2.07     18.07
  TU20               136.00      0.99      3.60
  TU200               -0.00      0.00      0.00
  TU201                0.00      0.00      0.00
  TU203               68.00      1.14      7.69
  TU204                0.00      0.00      0.00
  TU205                0.00      0.00      0.00
  TU21                -0.00      0.00      0.00
  TU22              1251.00      0.69      0.40
  TU23              1319.00      0.73      0.44
  TU24              1319.00      0.73      0.44
  TU25              1319.00      0.73      0.37
  TU26               826.00      0.81      0.75
  TU27               826.00      0.81      0.75
  TU28               877.00      0.86      0.84
  TU29               877.00      0.86      0.84
  TU3                  0.00      0.00      0.00
  TU30                 0.00      0.00      0.00
  TU31                -0.00      0.00      0.00
  TU32                 0.00      0.00      0.00
  TU33                 0.00      0.00      0.00
  TU34                 0.00      0.00      0.00
  TU35                -0.00      0.00      0.00
  TU36                 0.00      0.00      0.00
  TU37                 0.00      0.00      0.00
  TU38                 0.00      0.00      0.00
  TU39                -0.00      0.00      0.00
  TU4                281.00      0.40      0.25
  TU40                71.00      0.52      1.11
  TU41                71.00      0.16      0.06
  TU42                86.00      0.60      1.37
  TU43               175.00      0.25      0.11
  TU44               175.00      0.25      0.11
  TU45               238.00      0.34      0.19
  TU46               238.00      0.34      0.19
  TU47                -0.00      0.00      0.00
  TU48               160.00      2.10     20.33
  TU49               160.00      1.35      6.84
  TU5                281.00      0.40      0.25
  TU50                 0.00      0.00      0.00
  TU52               160.00      0.53      0.71
  TU53               160.00      0.53      0.71
  TU54                 0.00      0.00      0.00
  TU55               160.00      0.53      0.71
  TU56                 0.00      0.00      0.00
  TU57               160.00      0.45      0.49
  TU58                55.00      0.98      5.98
  TU59               215.00      0.61      0.84
  TU6                113.00      0.16      0.05
  TU61                 0.00      0.00      0.00
  TU62                89.00      0.47      0.77
  TU63                 0.00      0.00      0.00
  TU65                 0.00      0.00      0.00
  TU66                89.00      0.29      0.25
  TU67               156.00      0.44      0.47
  TU68               156.00      0.44      0.47
  TU69               371.00      0.52      0.42
  TU7                  0.00      0.00      0.00
  TU70               371.00      0.52      0.42
  TU71               371.00      0.52      0.42
  TU72                61.00      0.13      0.05
  TU73               245.00      0.54      0.58
  TU74               315.00      0.70      0.92
  TU75               315.00      0.70      0.92
  TU76               390.00      0.86      1.36
  TU77               455.00      1.01      1.81
  TU78                 0.00      0.00      0.00
  TU79                61.00      0.80      3.47
  TU8                 95.00      1.03      4.82
  TU80                 0.00      0.00      0.00
  TU81                61.00      0.51      1.18
  TU82                 0.00      0.00      0.00
  TU83                 0.00      0.00      0.00
  TU84                 0.00      0.00      0.00
  TU85                 0.00      0.00      0.00
  TU86                 0.00      0.00      0.00
  TU87                 0.00      0.00      0.00
  TU88                 0.00      0.00      0.00
  TU89                56.00      1.00      6.18
  TU9                 58.00      0.98      5.75
  TU90                 0.00      0.00      0.00
  TU91                56.00      0.64      2.11
  TU92                56.00      0.26      0.23
  TU93                56.00      0.16      0.07
  TU94                68.00      0.78      3.01
  TU95               124.00      0.35      0.31
  TU96                 0.00      0.00      0.00
  TU97                59.00      1.05      6.80
  TU98                59.00      0.67      2.32
  TU99               183.00      0.40      0.34
  TU4000              80.00      1.05      5.69
  TU60                -0.00      0.00      0.00
  TU64                89.00      0.47      0.77
  TU51               160.00      0.85      2.24
  2                   89.00      1.83     36.00
  3                  160.00      3.30      0.00
   
  Analysis ended Fri Sep  8 13:14:37 2023
