  Page 1                                    Fri Sep  8 13:07:48 2023

  ******************************************************************
  *                           E P A N E T                          *
  *                   Hydraulic and Water Quality                  *
  *                   Analysis for Pipe Networks                   *
  *                         Version 2.2                            *
  ******************************************************************
  
  Analysis begun Fri Sep  8 13:07:48 2023

   
  Node Results:
  ----------------------------------------------
                     Demand      Head  Pressure
  Node                 m3/h         m         m
  ----------------------------------------------
  3661                 0.00    429.00     50.86
  482                  0.00    429.00     83.00
  661                  0.00    424.58     94.58
  6610                 0.00    428.96     68.96
  6611                 0.00    428.34     93.34
  6612                 0.00    428.96     66.59
  6613                 0.00    428.15     73.15
  6615                 0.00    425.21     86.21
  6616                 0.00    424.89     63.89
  6617                 0.00    424.88     81.88
  6618                 0.00    425.09     77.09
  662                  0.00    428.98    100.98
  6620                 0.00    424.81    116.81
  6621                 0.00    424.81     96.81
  6622                 0.00    424.81     87.81
  6623                 0.00    424.81     73.81
  6624                 0.00    424.82     72.82
  6625                 0.00    388.68     76.68
  6626                 0.00    424.68    103.68
  6627                 0.00    424.58    103.58
  6628                 0.00    428.98     89.98
  6629                 0.00    428.98     88.98
  663                  0.00    428.96     87.96
  6630                 0.00    428.98     89.18
  6632                 0.00    428.98     88.98
  6633                 0.00    428.99     66.35
  6634                 0.00    428.99     57.99
  6635                 0.00    429.00     77.00
  6636                 0.00    429.00     73.00
  6637                 0.00    429.00     62.00
  6639                 0.00    428.96     68.96
  664                  0.00    428.92     80.92
  6640                 0.00    428.96     68.96
  6641                 0.00    428.96     70.28
  6642                 0.00    428.96     72.96
  6643                 0.00    428.96     76.96
  6644                 0.00    428.96     76.96
  6645                 0.00    428.96     78.96
  6646                 0.00    428.92     81.90
  6648                 0.00    428.92     82.91
  6649                 0.00    428.89     89.89
  665                  0.00    428.89     83.89
  666                  0.00    428.98     88.98
  6665                 0.00    429.00     63.86
  6666                 0.00    429.00     61.34
  667                  0.00    428.96     76.96
  668                  0.00    424.58     94.58
  669                  0.00    428.98     83.98
  1                    0.00    428.99     98.99
  10                   0.00    428.96     76.96
  100                  0.00    428.96     73.96
  100B                 0.00    428.96     70.96
  101                 98.00    427.86     74.86
  103                  0.00    428.61     89.61
  104                  0.00    428.61     89.61
  105                  0.00    428.15     73.15
  106                  0.00    428.15     73.15
  107                  0.00    425.21     86.21
  108                  0.00    425.21     86.65
  109                  0.00    425.21     88.21
  11B                  0.00    428.87     85.87
  110                  0.00    425.08     79.08
  111                 55.00    425.01     86.23
  112                  0.00    425.05     83.05
  113                  0.00    424.96    101.96
  114                  0.00    424.88     76.88
  115                  0.00    424.88     78.88
  116                  0.00    424.88     79.88
  117                  0.00    424.88     81.88
  118                  0.00    424.88     85.88
  119                  0.00    424.88    102.07
  12                   0.00    428.76     98.42
  121                  0.00    424.89     76.09
  122                  0.00    424.88     76.98
  123                  0.00    424.88     78.88
  125                  0.00    424.88     73.88
  126                  0.00    424.43     76.43
  127                145.00    422.62     79.29
  128                  0.00    424.87     62.87
  129                  0.00    424.66     68.66
  130                134.00    424.58     83.50
  130B                73.00    424.61     71.61
  132                  0.00    424.58     91.58
  134                  0.00    424.58    103.58
  135                  0.00    424.58    108.58
  137                  0.00    424.58    115.58
  139                  0.00    424.58     64.58
  14                   0.00    428.61     90.61
  140                  0.00    424.58     73.58
  141                  0.00    424.58     72.58
  142                  0.00    424.58     63.58
  143                  0.00    424.58     83.61
  144                 86.00    424.74     65.74
  146                  0.00    424.71     78.71
  147                 54.00    424.46    103.46
  148                 61.00    424.70     91.70
  149                  0.00    388.68     75.47
  15                   0.00    428.34     93.34
  150                  0.00    388.68     80.61
  151                  0.00    388.68     83.44
  152                  0.00    388.68     78.66
  153                  0.00    388.68     78.68
  154                  0.00    424.81     99.81
  157                  0.00    424.81    121.81
  158A                 0.00    424.81    103.81
  158B                 0.00    424.81    103.81
  16B                  0.00    428.62     94.62
  160                  0.00    429.00     62.00
  162                  0.00    429.00     61.00
  163                  0.00    429.00     55.00
  164                  0.00    429.00     69.34
  165                  0.00    429.00     67.70
  166                  0.00    429.00     67.99
  167                  0.00    429.00     58.36
  169                  0.00    429.00     62.50
  17A                224.00    428.14     93.14
  170                  0.00    429.00     70.00
  17B                  0.00    428.14     93.14
  171                  0.00    429.00     77.00
  172                  0.00    429.00     89.00
  18B                  0.00    428.14    103.14
  19                   0.00    428.99     70.99
  2                    0.00    428.98    102.98
  20                   0.00    429.00     65.00
  2002                 0.00    428.98     78.98
  2003                 0.00    428.98     78.98
  21                   0.00    425.29     63.69
  22                   0.00    425.28     63.68
  222                  0.00    425.24     75.24
  24                   0.00    425.21     81.21
  25                   0.00    425.16     80.16
  26                   0.00    425.09     77.09
  27                   0.00    425.11     75.11
  28                   0.00    425.06     75.06
  29                   0.00    424.91     68.91
  3                    0.00    428.97     88.62
  30                   0.00    424.89     63.89
  3002                 0.00    429.00     43.00
  3004                 0.00    429.00     43.00
  3005                 0.00    429.00     43.00
  3008                 0.00    429.00     44.00
  3012                 0.00    429.00     58.27
  3013                 0.00    429.00     64.07
  3016                 0.00    429.00     64.00
  3017                 0.00    429.00     47.00
  3018                 0.00    429.00     52.00
  3019                 0.00    429.00     59.61
  3020                 0.00    429.00     60.89
  3024                 0.00    429.00     64.06
  31                   0.00    424.84     67.05
  3152                 0.00    429.00     62.80
  32                   0.00    424.86     66.86
  34                  57.00    424.69     73.67
  35                   0.00    424.81     87.81
  36                   0.00    424.81     96.81
  39                   0.00    424.81    111.81
  41                   0.00    424.81    117.81
  46                   0.00    429.00     53.00
  47                   0.00    429.00     70.82
  48                   0.00    429.00     85.00
  49                   0.00    429.00     77.00
  5                    0.00    428.96     81.96
  52                   0.00    429.00     78.00
  53                   0.00    428.99     72.99
  54                   0.00    428.99     83.99
  55                   0.00    428.99     98.99
  56                   0.00    428.99     94.99
  58                   0.00    428.99     95.99
  59                   0.00    428.99     99.99
  6                    0.00    428.96     76.96
  60                   0.00    428.97     83.97
  61                   0.00    428.97     89.97
  62                   0.00    428.96     74.96
  64                   0.00    428.98     97.98
  65                   0.00    428.98     88.98
  66                   0.00    428.98     89.98
  67                   0.00    428.98     96.98
  68                   0.00    428.98     89.98
  69                   0.00    428.98     77.98
  7                    0.00    428.94     75.94
  70                   0.00    428.98     88.98
  71                   0.00    428.98     91.98
  72                   0.00    428.96     72.96
  73                   0.00    428.96     73.96
  77                   0.00    428.96     72.96
  78                   0.00    428.96     88.82
  79                   0.00    428.94     75.94
  8                    0.00    428.96     78.96
  80                   0.00    428.92     79.92
  81                   0.00    428.92     69.92
  82                   0.00    428.92     70.92
  85                   0.00    428.98     89.98
  86                   0.00    428.98     91.98
  87                   0.00    428.96     68.96
  88                   0.00    428.96     75.96
  89                   0.00    428.96     61.96
  90                   0.00    428.96     72.96
  91                   0.00    428.96     56.96
  92                   0.00    428.96     68.96
  91B                  0.00    428.96     68.96
  94                   0.00    428.89     89.89
  95                   0.00    428.89     85.89
  97                   0.00    428.89     97.89
  99                   0.00    428.96     78.96
  74                   0.00    428.96     70.25
  1074                 0.00    428.96     70.96
  11A                  0.00    428.89     85.89
  1011                 0.00    428.89     85.89
  4                    0.00    424.68    112.68
  9                    0.00    424.81    114.81
  0                 -322.00    429.00      0.00  Reservoir
  balsa             -665.00    425.29      0.00  Reservoir
   
   
  Link Results:
  ----------------------------------------------
                       Flow  Velocity  Headloss
  Link                 m3/h       m/s    /1000m
  ----------------------------------------------
  TU1                 -0.00      0.00      0.00
  TU10                 0.00      0.00      0.00
  TU100                0.00      0.00      0.00
  TU101                0.00      0.00      0.00
  TU102                0.00      0.00      0.00
  TU103                0.00      0.00      0.00
  TU104                0.00      0.00      0.00
  TU105              322.00      0.14      0.02
  TU106              322.00      0.14      0.02
  TU107                0.00      0.00      0.00
  TU108              322.00      0.14      0.02
  TU109              322.00      0.14      0.02
  TU11                98.00      0.45      0.64
  TU110              322.00      0.14      0.02
  TU111                0.00      0.00      0.00
  TU112               -0.00      0.00      0.00
  TU113                0.00      0.00      0.00
  TU114                0.00      0.00      0.00
  TU115              322.00      0.11      0.01
  TU116              322.00      0.11      0.01
  TU117               -0.00      0.00      0.00
  TU118                0.00      0.00      0.00
  TU119              322.00      0.11      0.01
  TU12                -0.00      0.00      0.00
  TU120              322.00      0.11      0.01
  TU121                0.00      0.00      0.00
  TU122                0.00      0.00      0.00
  TU123                0.00      0.00      0.00
  TU124                0.00      0.00      0.00
  TU125               -0.00      0.00      0.00
  TU126               -0.00      0.00      0.00
  TU127               -0.00      0.00      0.00
  TU128                0.00      0.00      0.00
  TU129                0.00      0.00      0.00
  TU13                 0.00      0.00      0.00
  TU130                0.00      0.00      0.00
  TU131               -0.00      0.00      0.00
  TU132                0.00      0.00      0.00
  TU133               -0.00      0.00      0.00
  TU134               -0.00      0.00      0.00
  TU135               -0.00      0.00      0.00
  TU136                0.00      0.00      0.00
  TU137                0.00      0.00      0.00
  TU138                0.00      0.00      0.00
  TU139                0.00      0.00      0.00
  TU14                98.00      0.22      0.11
  TU140                0.00      0.00      0.00
  TU141                0.00      0.00      0.00
  TU142                0.00      0.00      0.00
  TU143               -0.00      0.00      0.00
  TU144               -0.00      0.00      0.00
  TU145               -0.00      0.00      0.00
  TU146               -0.00      0.00      0.00
  TU147               -0.00      0.00      0.00
  TU148               -0.00      0.00      0.00
  TU149               -0.00      0.00      0.00
  TU15                -0.00      0.00      0.00
  TU150               -0.00      0.00      0.00
  TU151               -0.00      0.00      0.00
  TU152               -0.00      0.00      0.00
  TU15301              0.00      0.00      0.00
  TU15302              0.00      0.00      0.00
  TU1074               0.00      0.00      0.00
  TU154               -0.00      0.00      0.00
  TU155                0.00      0.00      0.00
  TU156               -0.00      0.00      0.00
  TU157               -0.00      0.00      0.00
  TU158                0.00      0.00      0.00
  TU159               -0.00      0.00      0.00
  TU16               322.00      0.06      0.00
  TU160                0.00      0.00      0.00
  TU161                0.00      0.00      0.00
  TU162              322.00      0.23      0.06
  TU163              322.00      0.23      0.06
  TU164              322.00      0.23      0.06
  TU166               -0.00      0.00      0.00
  TU167               -0.00      0.00      0.00
  TU168                0.00      0.00      0.00
  TU169                0.00      0.00      0.00
  TU17                 0.00      0.00      0.00
  TU170                0.00      0.00      0.00
  TU171              322.00      0.23      0.06
  TU17201             -0.00      0.00      0.00
  TU17202              0.00      0.00      0.00
  TU1011A             -0.00      0.00      0.00
  TU173               -0.00      0.00      0.00
  TU174               -0.00      0.00      0.00
  TU175               -0.00      0.00      0.00
  TU176              322.00      0.32      0.14
  TU177              322.00      0.32      0.14
  TU178              322.00      0.32      0.14
  TU179              224.00      0.64      0.91
  TU18                 0.00      0.00      0.00
  TU180              224.00      0.64      0.91
  TU181                0.00      0.00      0.00
  TU182                0.00      0.00      0.00
  TU183                0.00      0.00      0.00
  TU184                0.00      0.00      0.00
  TU185              145.00      0.32      0.23
  TU186               -0.00      0.00      0.00
  TU187               -0.00      0.00      0.00
  TU188              665.00      0.48      0.24
  TU189              665.00      0.48      0.24
  TU19                 0.00      0.00      0.00
  TU190               -0.00      0.00      0.00
  TU191               -0.00      0.00      0.00
  TU192                0.00      0.00      0.00
  TU193                0.00      0.00      0.00
  TU194               -0.00      0.00      0.00
  TU195                0.00      0.00      0.00
  TU196                0.00      0.00      0.00
  TU197               -0.00      0.00      0.00
  TU198                0.00      0.00      0.00
  TU199                0.00      0.00      0.00
  TU2                  0.00      0.00      0.00
  TU20                -0.00      0.00      0.00
  TU200               -0.00      0.00      0.00
  TU201                0.00      0.00      0.00
  TU203                0.00      0.00      0.00
  TU204                0.00      0.00      0.00
  TU205                0.00      0.00      0.00
  TU21                -0.00      0.00      0.00
  TU22               665.00      0.37      0.13
  TU23               665.00      0.37      0.13
  TU24               665.00      0.37      0.13
  TU25               665.00      0.37      0.12
  TU26               465.00      0.46      0.26
  TU27               465.00      0.46      0.26
  TU28               465.00      0.46      0.26
  TU29               465.00      0.46      0.26
  TU3                  0.00      0.00      0.00
  TU30                 0.00      0.00      0.00
  TU31                -0.00      0.00      0.00
  TU32                 0.00      0.00      0.00
  TU33                 0.00      0.00      0.00
  TU34                 0.00      0.00      0.00
  TU35                 0.00      0.00      0.00
  TU36                 0.00      0.00      0.00
  TU37                 0.00      0.00      0.00
  TU38                 0.00      0.00      0.00
  TU39               145.00      1.66     12.00
  TU4                 -0.00      0.00      0.00
  TU40               145.00      1.06      4.05
  TU41               145.00      0.32      0.23
  TU42                 0.00      0.00      0.00
  TU43               200.00      0.28      0.14
  TU44               200.00      0.28      0.14
  TU45               200.00      0.28      0.14
  TU46               200.00      0.28      0.14
  TU47                -0.00      0.00      0.00
  TU48                 0.00      0.00      0.00
  TU49                 0.00      0.00      0.00
  TU5                  0.00      0.00      0.00
  TU50                 0.00      0.00      0.00
  TU52                 0.00      0.00      0.00
  TU53                 0.00      0.00      0.00
  TU54                 0.00      0.00      0.00
  TU55                 0.00      0.00      0.00
  TU56                 0.00      0.00      0.00
  TU57                 0.00      0.00      0.00
  TU58                57.00      1.01      6.39
  TU59                57.00      0.16      0.08
  TU6                145.00      0.21      0.08
  TU61                 0.00      0.00      0.00
  TU62                -0.00      0.00      0.00
  TU63                 0.00      0.00      0.00
  TU65                54.00      1.11      8.27
  TU66                54.00      0.18      0.10
  TU67               115.00      0.33      0.27
  TU68               115.00      0.33      0.27
  TU69               172.00      0.24      0.10
  TU7                  0.00      0.00      0.00
  TU70               172.00      0.24      0.10
  TU71               172.00      0.24      0.10
  TU72                 0.00      0.00      0.00
  TU73               134.00      0.30      0.20
  TU74               207.00      0.46      0.43
  TU75               207.00      0.46      0.43
  TU76               293.00      0.65      0.81
  TU77               293.00      0.65      0.81
  TU78                 0.00      0.00      0.00
  TU79                 0.00      0.00      0.00
  TU8                 98.00      1.06      5.11
  TU80                 0.00      0.00      0.00
  TU81                 0.00      0.00      0.00
  TU82                 0.00      0.00      0.00
  TU83                 0.00      0.00      0.00
  TU84                 0.00      0.00      0.00
  TU85                 0.00      0.00      0.00
  TU86                 0.00      0.00      0.00
  TU87                 0.00      0.00      0.00
  TU88                 0.00      0.00      0.00
  TU89                 0.00      0.00      0.00
  TU9                  0.00      0.00      0.00
  TU90                 0.00      0.00      0.00
  TU91                -0.00      0.00      0.00
  TU92                -0.00      0.00      0.00
  TU93                 0.00      0.00      0.00
  TU94                 0.00      0.00      0.00
  TU95                 0.00      0.00      0.00
  TU96                 0.00      0.00      0.00
  TU97                 0.00      0.00      0.00
  TU98                 0.00      0.00      0.00
  TU99                 0.00      0.00      0.00
  TU4000               0.00      0.00      0.00
  TU60                -0.00      0.00      0.00
  TU64                 0.00      0.00      0.00
  TU51                 0.00      0.00      0.00
  2                    0.00      0.00     36.00
  3                    0.00      0.00      0.00
   
  Analysis ended Fri Sep  8 13:07:48 2023
