  Page 1                                    Fri Sep  8 13:07:51 2023

  ******************************************************************
  *                           E P A N E T                          *
  *                   Hydraulic and Water Quality                  *
  *                   Analysis for Pipe Networks                   *
  *                         Version 2.2                            *
  ******************************************************************
  
  Analysis begun Fri Sep  8 13:07:51 2023

   
  Node Results:
  ----------------------------------------------
                     Demand      Head  Pressure
  Node                 m3/h         m         m
  ----------------------------------------------
  3661                 0.00    428.93     50.79
  482                  0.00    428.90     82.90
  661                  0.00    423.72     93.72
  6610                 0.00    424.20     64.20
  6611                 0.00    427.54     92.54
  6612                 0.00    426.95     64.58
  6613                 0.00    427.33     72.33
  6615                 0.00    425.04     86.04
  6616                 0.00    424.28     63.28
  6617                 0.00    424.46     81.46
  6618                 0.00    424.81     76.81
  662                  0.00    428.54    100.54
  6620                 0.00    421.77    113.77
  6621                 0.00    423.22     95.22
  6622                 0.00    423.55     86.55
  6623                 0.00    423.88     72.88
  6624                 0.00    423.98     71.98
  6625                 0.00    387.85     75.85
  6626                 0.00    423.85    102.85
  6627                 0.00    423.72    102.72
  6628                 0.00    428.43     89.43
  6629                 0.00    428.43     88.43
  663                  0.00    428.25     87.25
  6630                 0.00    428.49     88.69
  6632                 0.00    428.52     88.52
  6633                 0.00    428.83     66.19
  6634                 0.00    428.87     57.87
  6635                 0.00    428.90     76.90
  6636                 0.00    428.90     72.90
  6637                 0.00    428.90     61.90
  6639                 0.00    425.70     65.70
  664                  0.00    428.13     80.13
  6640                 0.00    425.41     65.41
  6641                 0.00    426.38     67.70
  6642                 0.00    426.38     70.38
  6643                 0.00    427.59     75.59
  6644                 0.00    427.75     75.75
  6645                 0.00    427.82     77.82
  6646                 0.00    427.45     80.43
  6648                 0.00    427.45     81.44
  6649                 0.00    427.96     88.96
  665                  0.00    428.06     83.06
  666                  0.00    428.49     88.49
  6665                 0.00    428.90     63.76
  6666                 0.00    428.90     61.24
  667                  0.00    427.73     75.73
  668                  0.00    423.72     93.72
  669                  0.00    428.43     83.43
  1                    0.00    428.67     98.67
  10                   0.00    427.59     75.59
  100                  0.00    426.38     71.38
  100B                 0.00    425.41     67.41
  101                 97.00    427.04     74.04
  103                  0.00    427.79     88.79
  104                  0.00    427.79     88.79
  105                  0.00    427.33     72.33
  106                  0.00    427.33     72.33
  107                  0.00    425.04     86.04
  108                  0.00    425.04     86.48
  109                  0.00    425.04     88.04
  11B                122.00    428.02     85.02
  110                  0.00    424.78     78.78
  111                 57.00    424.69     85.91
  112                  0.00    424.74     82.74
  113                  0.00    424.60    101.60
  114                  0.00    424.46     76.46
  115                  0.00    424.46     78.46
  116                  0.00    424.46     79.46
  117                  0.00    424.46     81.46
  118                  0.00    424.46     85.46
  119                  0.00    424.46    101.65
  12                   0.00    427.93     97.59
  121                 65.00    424.47     75.67
  122                  0.00    424.46     76.56
  123                  0.00    424.46     78.46
  125                  0.00    424.46     73.46
  126                  0.00    424.09     76.09
  127                131.00    422.59     79.26
  128                  0.00    424.25     62.25
  129                  0.00    423.89     67.89
  130                165.00    423.73     82.65
  130B                74.00    423.80     70.80
  132                  0.00    423.72     90.72
  134                  0.00    423.72    102.72
  135                  0.00    423.72    107.72
  137                  0.00    423.72    114.72
  139                  0.00    423.57     63.57
  14                   0.00    427.79     89.79
  140                 56.00    423.57     72.57
  141                  0.00    423.57     71.57
  142                  0.00    423.57     62.57
  143                  0.00    423.72     82.75
  144                 84.00    424.05     65.05
  146                 63.00    423.86     77.86
  147                  0.00    423.85    102.85
  148                 66.00    423.85     90.85
  149                  0.00    387.85     74.64
  15                   0.00    427.54     92.54
  150                  0.00    387.85     79.78
  151                  0.00    387.85     82.61
  152                  0.00    387.85     77.83
  153                  0.00    387.85     77.85
  154                  0.00    423.07     98.07
  157                 60.00    420.51    117.51
  158A                71.00    410.98     89.98
  158B                71.00    410.96     89.96
  16B                  0.00    427.80     93.80
  160                  0.00    428.90     61.90
  162                  0.00    428.90     60.90
  163                  0.00    428.90     54.90
  164                  0.00    428.90     69.24
  165                  0.00    428.90     67.60
  166                  0.00    428.90     67.89
  167                  0.00    428.90     58.26
  169                  0.00    428.90     62.40
  17A                  0.00    427.36     92.36
  170                  0.00    428.90     69.90
  17B                  0.00    427.19     92.19
  171                  0.00    428.90     76.90
  172                  0.00    428.90     88.90
  18B                212.00    421.79     96.79
  19                   0.00    428.83     70.83
  2                    0.00    428.57    102.57
  20                   0.00    428.93     64.93
  2002                 0.00    428.43     78.43
  2003                 0.00    428.43     78.43
  21                   0.00    425.22     63.62
  22                   0.00    425.21     63.61
  222                  0.00    425.11     75.11
  24                   0.00    425.04     81.04
  25                   0.00    424.94     79.94
  26                   0.00    424.81     76.81
  27                   0.00    424.83     74.83
  28                   0.00    424.70     74.70
  29                   0.00    424.34     68.34
  3                    0.00    428.42     88.07
  30                   0.00    424.29     63.29
  3002                 0.00    428.93     42.93
  3004                 0.00    428.93     42.93
  3005                 0.00    428.93     42.93
  3008                 0.00    428.93     43.93
  3012                 0.00    428.93     58.20
  3013                 0.00    428.93     64.00
  3016                 0.00    428.93     63.93
  3017                 0.00    428.93     46.93
  3018                 0.00    428.90     51.90
  3019                 0.00    428.93     59.54
  3020                 0.00    428.93     60.82
  3024                 0.00    428.93     63.99
  31                   0.00    424.09     66.30
  3152                 0.00    428.93     62.73
  32                   0.00    424.17     66.17
  34                  52.00    423.78     72.76
  35                   0.00    423.55     86.55
  36                   0.00    423.22     95.22
  39                   0.00    422.59    109.59
  41                   0.00    421.53    114.53
  46                 177.00    428.90     52.90
  47                   0.00    428.90     70.72
  48                   0.00    428.90     84.90
  49                   0.00    428.90     76.90
  5                    0.00    428.33     81.33
  52                   0.00    428.90     77.90
  53                   0.00    428.87     72.87
  54                   0.00    428.77     83.77
  55                   0.00    427.66     97.66
  56                   0.00    427.17     93.17
  58                 130.00    422.87     89.87
  59                 153.00    419.58     90.58
  6                   60.00    427.54     75.54
  60                   0.00    428.42     83.42
  61                   0.00    428.42     89.42
  62                   0.00    427.61     73.61
  64                   0.00    428.53     97.53
  65                   0.00    428.52     88.52
  66                   0.00    428.52     89.52
  67                   0.00    428.50     96.50
  68                   0.00    428.49     89.49
  69                   0.00    428.49     77.49
  7                    0.00    428.18     75.18
  70                   0.00    428.43     88.43
  71                  86.00    426.64     89.64
  72                   0.00    427.61     71.61
  73                   0.00    427.55     72.55
  77                 134.00    423.19     67.19
  78                   0.00    427.61     87.47
  79                   0.00    428.18     75.18
  8                    0.00    427.82     77.82
  80                   0.00    428.11     79.11
  81                  79.00    425.26     66.26
  82                   0.00    427.45     69.45
  85                   0.00    428.43     89.43
  86                   0.00    428.43     91.43
  87                   0.00    427.14     67.14
  88                   0.00    426.95     73.95
  89                  81.00    426.55     59.55
  90                   0.00    426.38     70.38
  91                 196.00    425.21     53.21
  92                  59.00    424.15     64.15
  91B                180.00    423.85     63.85
  94                   0.00    427.96     88.96
  95                   0.00    427.74     84.74
  97                   0.00    427.60     96.60
  99                 147.00    423.85     73.85
  74                   0.00    427.52     68.81
  1074                 0.00    427.52     69.52
  11A                 73.00    427.53     84.53
  1011                 0.00    427.60     84.60
  4                    0.00    423.85    111.85
  9                    0.00    421.77    111.77
  0                -1986.00    429.00      0.00  Reservoir
  balsa            -1015.00    425.22     -0.00  Reservoir
   
   
  Link Results:
  ----------------------------------------------
                       Flow  Velocity  Headloss
  Link                 m3/h       m/s    /1000m
  ----------------------------------------------
  TU1                 59.00      0.64      2.09
  TU10                 0.00      0.00      0.00
  TU100               86.00      0.19      0.09
  TU101               86.00      0.12      0.03
  TU102                0.00      0.00      0.00
  TU103               86.00      0.12      0.03
  TU104               86.00      0.12      0.03
  TU105             1440.00      0.63      0.29
  TU106             1440.00      0.63      0.29
  TU107                0.00      0.00      0.00
  TU108             1440.00      0.63      0.29
  TU109             1526.00      0.67      0.33
  TU11                97.00      0.44      0.63
  TU110             1526.00      0.67      0.32
  TU111              153.00      2.01     18.71
  TU112              283.00      2.07     13.87
  TU113              283.00      1.50      6.37
  TU114              283.00      1.50      6.37
  TU115             1809.00      0.64      0.27
  TU116             1809.00      0.64      0.27
  TU117               -0.00      0.00      0.00
  TU118                0.00      0.00      0.00
  TU119             1809.00      0.64      0.27
  TU12                -0.00      0.00      0.00
  TU120             1809.00      0.64      0.27
  TU121                0.00      0.00      0.00
  TU122                0.00      0.00      0.00
  TU123                0.00      0.00      0.00
  TU124                0.00      0.00      0.00
  TU125               -0.00      0.00      0.00
  TU126               -0.00      0.00      0.00
  TU127               -0.00      0.00      0.00
  TU128                0.00      0.00      0.00
  TU129                0.00      0.00      0.00
  TU13                 0.00      0.00      0.00
  TU130               -0.00      0.00      0.00
  TU131               -0.00      0.00      0.00
  TU132                0.00      0.00      0.00
  TU133               -0.00      0.00      0.00
  TU134              180.00      1.94     15.60
  TU135               -0.00      0.00      0.00
  TU136                0.00      0.00      0.00
  TU137                0.00      0.00      0.00
  TU138                0.00      0.00      0.00
  TU139                0.00      0.00      0.00
  TU14                97.00      0.21      0.11
  TU140              177.00      0.17      0.05
  TU141                0.00      0.00      0.00
  TU142              134.00      0.36      0.32
  TU143              196.00      0.85      2.00
  TU144               -0.00      0.00      0.00
  TU145              239.00      1.65      8.90
  TU146              239.00      1.04      2.88
  TU147              435.00      1.17      2.70
  TU148                0.00      0.00      0.00
  TU149               -0.00      0.00      0.00
  TU15                -0.00      0.00      0.00
  TU150               -0.00      0.00      0.00
  TU151              435.00      0.62      0.56
  TU152              147.00      1.68     12.31
  TU15301            663.00      0.94      1.22
  TU15302            663.00      0.94      1.22
  TU1074               0.00      0.00      0.00
  TU154              663.00      0.65      0.50
  TU155                0.00      0.00      0.00
  TU156              663.00      0.65      0.50
  TU157              797.00      0.78      0.70
  TU158               60.00      1.07      7.01
  TU159              857.00      0.84      0.81
  TU16              1986.00      0.36      0.06
  TU160                0.00      0.00      0.00
  TU161              857.00      0.84      0.81
  TU162              583.00      0.42      0.19
  TU163              583.00      0.42      0.19
  TU164              583.00      0.42      0.19
  TU166               79.00      1.63     16.58
  TU167               -0.00      0.00      0.00
  TU168                0.00      0.00      0.00
  TU169               79.00      0.66      1.89
  TU17                -0.00      0.00      0.00
  TU170               79.00      0.36      0.43
  TU171              504.00      0.36      0.14
  TU17201             73.00      0.96      4.81
  TU17202              0.00      0.00      0.00
  TU1011A             73.00      0.96      4.82
  TU173               73.00      0.53      1.16
  TU174               -0.00      0.00      0.00
  TU175               73.00      0.33      0.38
  TU176              309.00      0.30      0.13
  TU177              431.00      0.42      0.23
  TU178              309.00      0.30      0.13
  TU179              212.00      0.60      0.82
  TU18                 0.00      0.00      0.00
  TU180              212.00      0.60      0.82
  TU181              212.00      1.78     11.48
  TU182              212.00      0.97      2.61
  TU183                0.00      0.00      0.00
  TU184                0.00      0.00      0.00
  TU185              196.00      0.43      0.39
  TU186               -0.00      0.00      0.00
  TU187               -0.00      0.00      0.00
  TU188             1015.00      0.73      0.52
  TU189             1015.00      0.73      0.52
  TU19                 0.00      0.00      0.00
  TU190               -0.00      0.00      0.00
  TU191               -0.00      0.00      0.00
  TU192                0.00      0.00      0.00
  TU193               -0.00      0.00      0.00
  TU194               -0.00      0.00      0.00
  TU195                0.00      0.00      0.00
  TU196                0.00      0.00      0.00
  TU197               -0.00      0.00      0.00
  TU198                0.00      0.00      0.00
  TU199                0.00      0.00      0.00
  TU2                  0.00      0.00      0.00
  TU20                -0.00      0.00      0.00
  TU200               -0.00      0.00      0.00
  TU201                0.00      0.00      0.00
  TU203                0.00      0.00      0.00
  TU204                0.00      0.00      0.00
  TU205                0.00      0.00      0.00
  TU21                -0.00      0.00      0.00
  TU22              1015.00      0.56      0.27
  TU23              1015.00      0.56      0.27
  TU24              1015.00      0.56      0.27
  TU25              1015.00      0.56      0.25
  TU26               762.00      0.75      0.65
  TU27               762.00      0.75      0.65
  TU28               762.00      0.75      0.65
  TU29               762.00      0.75      0.65
  TU3                  0.00      0.00      0.00
  TU30                 0.00      0.00      0.00
  TU31                -0.00      0.00      0.00
  TU32                 0.00      0.00      0.00
  TU33                 0.00      0.00      0.00
  TU34                 0.00      0.00      0.00
  TU35                -0.00      0.00      0.00
  TU36                 0.00      0.00      0.00
  TU37                 0.00      0.00      0.00
  TU38                 0.00      0.00      0.00
  TU39               131.00      1.50      9.96
  TU4                663.00      0.94      1.22
  TU40               131.00      0.96      3.36
  TU41               131.00      0.29      0.19
  TU42                 0.00      0.00      0.00
  TU43               253.00      0.36      0.21
  TU44               253.00      0.36      0.21
  TU45               253.00      0.36      0.21
  TU46               253.00      0.36      0.21
  TU47                -0.00      0.00      0.00
  TU48               142.00      1.87     16.30
  TU49               142.00      1.20      5.49
  TU5                663.00      0.94      1.22
  TU50                60.00      1.24     10.02
  TU52               202.00      0.67      1.09
  TU53               202.00      0.67      1.09
  TU54                 0.00      0.00      0.00
  TU55               202.00      0.67      1.09
  TU56                 0.00      0.00      0.00
  TU57               202.00      0.57      0.75
  TU58                52.00      0.93      5.40
  TU59               254.00      0.72      1.14
  TU6                196.00      0.28      0.13
  TU61                 0.00      0.00      0.00
  TU62                -0.00      0.00      0.00
  TU63                 0.00      0.00      0.00
  TU65                 0.00      0.00      0.00
  TU66                 0.00      0.00      0.00
  TU67                66.00      0.19      0.10
  TU68               129.00      0.37      0.33
  TU69               383.00      0.54      0.45
  TU7                134.00      2.25     26.76
  TU70               383.00      0.54      0.45
  TU71               383.00      0.54      0.45
  TU72                56.00      0.12      0.04
  TU73               221.00      0.49      0.48
  TU74               295.00      0.65      0.82
  TU75               295.00      0.65      0.82
  TU76               379.00      0.84      1.29
  TU77               379.00      0.84      1.29
  TU78                 0.00      0.00      0.00
  TU79                 0.00      0.00      0.00
  TU8                 97.00      1.05      5.01
  TU80                 0.00      0.00      0.00
  TU81                 0.00      0.00      0.00
  TU82                -0.00      0.00      0.00
  TU83                 0.00      0.00      0.00
  TU84                 0.00      0.00      0.00
  TU85                 0.00      0.00      0.00
  TU86                 0.00      0.00      0.00
  TU87                56.00      0.30      0.34
  TU88                56.00      0.12      0.04
  TU89                 0.00      0.00      0.00
  TU9                  0.00      0.00      0.00
  TU90                 0.00      0.00      0.00
  TU91                -0.00      0.00      0.00
  TU92                -0.00      0.00      0.00
  TU93                 0.00      0.00      0.00
  TU94                86.00      0.98      4.61
  TU95                86.00      0.24      0.16
  TU96                 0.00      0.00      0.00
  TU97                 0.00      0.00      0.00
  TU98                 0.00      0.00      0.00
  TU99                86.00      0.19      0.09
  TU4000              71.00      0.93      4.58
  TU60                -0.00      0.00      0.00
  TU64                 0.00      0.00      0.00
  TU51               202.00      1.07      3.43
  2                    0.00      0.00     36.00  PBV
  3                  202.00      4.16      0.00  PBV
   
  Analysis ended Fri Sep  8 13:07:51 2023
