  Page 1                                    Fri Sep  8 13:16:32 2023

  ******************************************************************
  *                           E P A N E T                          *
  *                   Hydraulic and Water Quality                  *
  *                   Analysis for Pipe Networks                   *
  *                         Version 2.2                            *
  ******************************************************************
  
  Analysis begun Fri Sep  8 13:16:32 2023

   
  Node Results:
  ----------------------------------------------
                     Demand      Head  Pressure
  Node                 m3/h         m         m
  ----------------------------------------------
  3661                 0.00    428.65     50.51
  482                  0.00    427.76     81.76
  661                  0.00    416.22     86.22
  6610                 0.00    423.62     63.62
  6611                 0.00    419.55     84.55
  6612                 0.00    424.77     62.40
  6613                 0.00    420.10     65.10
  6615                 0.00    419.19     80.19
  6616                 0.00    418.22     57.22
  6617                 0.00    417.26     74.26
  6618                 0.00    419.17     71.17
  662                  0.00    427.21     99.21
  6620                 0.00    418.02    110.02
  6621                 0.00    418.02     90.02
  6622                 0.00    418.02     81.02
  6623                 0.00    418.02     67.02
  6624                 0.00    418.02     66.02
  6625                 0.00    381.35     69.35
  6626                 0.00    417.52     96.52
  6627                 0.00    413.62     92.62
  6628                 0.00    425.41     86.41
  6629                 0.00    426.73     86.73
  663                  0.00    426.03     85.03
  6630                 0.00    426.64     86.84
  6632                 0.00    427.10     87.10
  6633                 0.00    428.31     65.67
  6634                 0.00    428.42     57.42
  6635                 0.00    428.15     76.15
  6636                 0.00    428.15     72.15
  6637                 0.00    427.98     60.98
  6639                 0.00    424.53     64.53
  664                  0.00    424.92     76.92
  6640                 0.00    424.35     64.35
  6641                 0.00    424.67     65.99
  6642                 0.00    424.67     68.67
  6643                 0.00    425.04     73.04
  6644                 0.00    425.23     73.23
  6645                 0.00    425.33     75.33
  6646                 0.00    420.95     73.93
  6648                 0.00    421.22     75.21
  6649                 0.00    423.20     84.20
  665                  0.00    424.33     79.33
  666                  0.00    426.94     86.94
  6665                 0.00    426.98     61.84
  6666                 0.00    427.65     59.99
  667                  0.00    425.20     73.20
  668                  0.00    416.20     86.20
  669                  0.00    426.70     81.70
  1                   61.00    427.75     97.75
  10                  66.00    424.65     72.65
  100                  0.00    424.67     69.67
  100B                 0.00    424.35     66.35
  101                100.00    419.80     66.80
  103                 51.00    417.08     78.08
  104                170.00    416.89     77.89
  105                  0.00    420.10     65.10
  106                 57.00    420.02     65.02
  107                 79.00    418.88     79.88
  108                 44.00    418.69     80.13
  109                  0.00    419.07     82.07
  11B                144.00    424.05     81.05
  110                 73.00    419.06     73.06
  111                 58.00    418.72     79.94
  112                  0.00    418.90     76.90
  113                  0.00    418.35     95.35
  114                 57.00    417.56     69.56
  115                 54.00    417.35     71.35
  116                  0.00    417.48     72.48
  117                 63.00    417.19     74.19
  118                  0.00    417.26     78.26
  119                  0.00    417.26     94.45
  12                   0.00    422.89     92.55
  121                 64.00    417.76     68.96
  122                  0.00    417.48     69.58
  123                  0.00    417.48     71.48
  125                  0.00    417.72     66.72
  126                 52.00    416.84     68.84
  127                156.00    414.77     71.44
  128                 65.00    418.14     56.14
  129                  0.00    417.07     61.07
  130                128.00    416.45     75.37
  130B                71.00    416.77     63.77
  132                 55.00    409.74     76.74
  134                 60.00    413.33     92.33
  135                 56.00    411.45     95.45
  137                 62.00    407.11     98.11
  139                 66.00    415.77     55.77
  14                  87.00    421.20     83.20
  140                  0.00    416.01     65.01
  141                  0.00    415.99     63.99
  142                  0.00    415.77     54.77
  143                 65.00    406.63     65.66
  144                 85.00    417.61     58.61
  146                  0.00    417.71     71.71
  147                 65.00    417.22     96.22
  148                 60.00    417.66     84.66
  149                  0.00    381.35     68.14
  15                 218.00    418.92     83.92
  150                 90.00    381.16     73.09
  151                  0.00    381.16     75.92
  152                  0.00    381.16     71.14
  153                  0.00    381.16     71.16
  154                  0.00    418.02     93.02
  157                  0.00    418.02    115.02
  158A                 0.00    418.02     97.02
  158B                 0.00    418.02     97.02
  16B                119.00    421.36     87.36
  160                  0.00    427.95     60.95
  162                  0.00    427.80     59.80
  163                 88.00    427.35     53.35
  164                 58.00    427.45     67.79
  165                 64.00    426.98     65.68
  166                 94.00    426.99     65.98
  167                  0.00    426.98     56.34
  169                  0.00    427.39     60.89
  17A                  0.00    418.99     83.99
  170                102.00    428.06     69.06
  17B                174.00    418.43     83.43
  171                  0.00    428.15     76.15
  172                  0.00    428.15     88.15
  18B                224.00    412.45     87.45
  19                   0.00    428.31     70.31
  2                    0.00    427.33    101.33
  20                  88.00    428.65     64.65
  2002                 0.00    426.70     76.70
  2003                 0.00    426.70     76.70
  21                  61.00    420.39     58.79
  22                  75.00    420.37     58.77
  222                 70.00    420.04     70.04
  24                   0.00    419.84     75.84
  25                   0.00    419.57     74.57
  26                   0.00    419.17     71.17
  27                   0.00    419.29     69.29
  28                  65.00    419.02     69.02
  29                  44.00    418.33     62.33
  3                    0.00    426.72     86.37
  30                   0.00    418.25     57.25
  3002                 0.00    428.65     42.65
  3004                 0.00    428.65     42.65
  3005                 0.00    428.65     42.65
  3008                 0.00    428.65     43.65
  3012                 0.00    428.65     57.92
  3013                 0.00    428.65     63.72
  3016               136.00    428.65     63.65
  3017               137.00    428.66     46.66
  3018                71.00    428.01     51.01
  3019                 0.00    428.65     59.26
  3020                 0.00    428.65     60.54
  3024                 0.00    428.65     63.71
  31                  55.00    418.08     60.29
  3152                 0.00    428.65     62.45
  32                   0.00    418.14     60.14
  34                  53.00    417.92     66.90
  35                   0.00    418.02     81.02
  36                   0.00    418.02     90.02
  39                   0.00    418.02    105.02
  41                   0.00    418.02    111.02
  46                 171.00    428.26     52.26
  47                   0.00    427.39     69.21
  48                   0.00    427.67     83.67
  49                   0.00    426.99     74.99
  5                    0.00    426.36     79.36
  52                  73.00    426.96     75.96
  53                 122.00    426.09     70.09
  54                   0.00    428.11     83.11
  55                   0.00    427.36     97.36
  56                  55.00    427.17     93.17
  58                 114.00    426.36     93.36
  59                   0.00    426.36     97.36
  6                    0.00    425.23     73.23
  60                   0.00    426.72     81.72
  61                   0.00    426.72     87.72
  62                 109.00    420.21     66.21
  64                   0.00    427.17     96.17
  65                   0.00    427.10     87.10
  66                   0.00    427.10     88.10
  67                   0.00    427.01     95.01
  68                   0.00    426.64     87.64
  69                  50.00    426.06     75.06
  7                    0.00    425.41     72.41
  70                   0.00    426.61     86.61
  71                 115.00    423.68     86.68
  72                  98.00    424.60     68.60
  73                 163.00    425.00     70.00
  77                 115.00    421.27     65.27
  78                   0.00    424.60     84.46
  79                  44.00    425.40     72.40
  8                   67.00    425.09     75.09
  80                  96.00    424.70     75.70
  81                  70.00    419.47     60.47
  82                 127.00    420.21     62.21
  85                  57.00    425.16     86.16
  86                   0.00    425.41     88.41
  87                 115.00    424.82     64.82
  88                  48.00    421.58     68.58
  89                  78.00    424.70     57.70
  90                   0.00    424.67     68.67
  91                   0.00    424.53     52.53
  92                   0.00    423.62     63.62
  91B                181.00    423.28     63.28
  94                  78.00    422.57     83.57
  95                   0.00    421.81     78.81
  97                 130.00    415.30     84.30
  99                   0.00    424.70     74.70
  74                  73.00    422.99     64.28
  1074                 0.00    424.98     66.98
  11A                 72.00    420.80     77.80
  1011                 0.00    420.87     77.87
  4                    0.00    417.35    105.35
  9                    0.00    418.02    108.02
  0                -4730.00    429.00      0.00  Reservoir
  balsa            -2051.00    420.39     -0.00  Reservoir
   
   
  Link Results:
  ----------------------------------------------
                       Flow  Velocity  Headloss
  Link                 m3/h       m/s    /1000m
  ----------------------------------------------
  TU1                 -0.00      0.00      0.00
  TU10                 0.00      0.00      0.00
  TU100              222.00      0.49      0.49
  TU101              222.00      0.31      0.17
  TU102                0.00      0.00      0.00
  TU103              222.00      0.31      0.17
  TU104              222.00      0.31      0.17
  TU105             3074.00      1.34      1.18
  TU106             3074.00      1.34      1.18
  TU107                0.00      0.00      0.00
  TU108             3074.00      1.34      1.18
  TU109             3296.00      1.44      1.35
  TU11               157.00      0.72      1.51
  TU110             3296.00      1.44      1.34
  TU111                0.00      0.00      0.00
  TU112              114.00      0.83      2.61
  TU113              169.00      0.90      2.47
  TU114              169.00      0.90      2.47
  TU115             3526.00      1.25      0.91
  TU116             3526.00      1.25      0.91
  TU117              122.00      1.32      7.62
  TU118                0.00      0.00      0.00
  TU119             3526.00      1.25      0.91
  TU12               170.00      1.94     16.10
  TU120             3648.00      1.29      0.97
  TU121               -0.00      0.00      0.00
  TU122                0.00      0.00      0.00
  TU123                0.00      0.00      0.00
  TU124               73.00      0.83      3.42
  TU125               73.00      0.53      1.16
  TU126               73.00      0.33      0.38
  TU127               73.00      0.33      0.38
  TU128                0.00      0.00      0.00
  TU129                0.00      0.00      0.00
  TU13               221.00      1.61      8.78
  TU130               64.00      0.28      0.27
  TU131              158.00      0.69      1.35
  TU132                0.00      0.00      0.00
  TU133              158.00      0.69      1.35
  TU134              181.00      1.95     15.76
  TU135              304.00      0.67      0.86
  TU136              304.00      0.67      0.86
  TU137              377.00      0.53      0.43
  TU138              479.00      0.68      0.67
  TU139              479.00      0.47      0.28
  TU14               465.00      1.03      1.88
  TU140              721.00      0.71      0.59
  TU141              109.00      1.83     18.27
  TU142              322.00      0.87      1.55
  TU143               -0.00      0.00      0.00
  TU144               -0.00      0.00      0.00
  TU145              181.00      1.25      5.34
  TU146              181.00      0.79      1.73
  TU147              181.00      0.49      0.54
  TU148               -0.00      0.00      0.00
  TU149               -0.00      0.00      0.00
  TU15                -0.00      0.00      0.00
  TU150               -0.00      0.00      0.00
  TU151              181.00      0.26      0.11
  TU152               -0.00      0.00      0.00
  TU15301            495.00      0.70      0.71
  TU15302            422.00      0.60      0.53
  TU1074              73.00      0.96      4.81
  TU154              658.00      0.65      0.50
  TU155               66.00      1.11      7.28
  TU156              724.00      0.71      0.59
  TU157             1046.00      1.03      1.16
  TU158                0.00      0.00      0.00
  TU159             1046.00      1.03      1.16
  TU16              4730.00      0.85      0.30
  TU160               67.00      1.19      8.57
  TU161             1113.00      1.09      1.30
  TU162             1961.00      1.42      1.75
  TU163             1917.00      1.38      1.68
  TU164             1961.00      1.42      1.75
  TU166               70.00      1.44     13.28
  TU167              127.00      1.67     13.27
  TU168              127.00      1.67     13.27
  TU169              197.00      1.66     10.03
  TU17                44.00      0.78      3.99
  TU170              293.00      1.34      4.72
  TU171             1624.00      1.17      1.24
  TU17201            202.00      2.66     31.32
  TU17202            130.00      1.71     13.85
  TU1011A             72.00      0.95      4.70
  TU173              202.00      1.48      7.44
  TU174               78.00      1.39     11.32
  TU175              280.00      1.28      4.34
  TU176             1200.00      1.18      1.50
  TU177             1344.00      1.32      1.85
  TU178             1200.00      1.18      1.50
  TU179              616.00      1.75      5.80
  TU18                44.00      0.50      1.37
  TU180              398.00      1.13      2.59
  TU181              224.00      1.89     12.71
  TU182              398.00      1.82      8.30
  TU183                0.00      0.00      0.00
  TU184                0.00      0.00      0.00
  TU185              446.00      0.99      1.74
  TU186              216.00      0.58      0.75
  TU187              304.00      0.67      0.86
  TU188             1722.00      1.24      1.38
  TU189             1722.00      1.24      1.38
  TU19                79.00      1.41     11.59
  TU190               -0.00      0.00      0.00
  TU191               -0.00      0.00      0.00
  TU192                0.00      0.00      0.00
  TU193                0.00      0.00      0.00
  TU194               -0.00      0.00      0.00
  TU195                0.00      0.00      0.00
  TU196                0.00      0.00      0.00
  TU197               -0.00      0.00      0.00
  TU198                0.00      0.00      0.00
  TU199                0.00      0.00      0.00
  TU2                218.00      2.49     25.52
  TU20               123.00      0.90      3.00
  TU200               -0.00      0.00      0.00
  TU201                0.00      0.00      0.00
  TU203               71.00      1.19      8.32
  TU204               88.00      0.04      0.00
  TU205              224.00      0.10      0.01
  TU21                -0.00      0.00      0.00
  TU22              1845.00      1.02      0.82
  TU23              1915.00      1.06      0.87
  TU24              1990.00      1.10      0.94
  TU25              2051.00      1.13      0.99
  TU26              1036.00      1.02      1.14
  TU27              1036.00      1.02      1.14
  TU28              1080.00      1.06      1.23
  TU29              1145.00      1.12      1.37
  TU3                 48.00      0.81      4.08
  TU30                 0.00      0.00      0.00
  TU31                -0.00      0.00      0.00
  TU32                63.00      0.72      2.62
  TU33                63.00      0.29      0.29
  TU34               117.00      0.54      0.88
  TU35                 0.00      0.00      0.00
  TU36                 0.00      0.00      0.00
  TU37               117.00      0.33      0.28
  TU38               174.00      0.49      0.57
  TU39               156.00      1.78     13.73
  TU4                259.00      0.37      0.22
  TU40               208.00      1.52      7.85
  TU41               382.00      0.84      1.31
  TU42                88.00      0.61      1.43
  TU43               504.00      0.71      0.74
  TU44               504.00      0.71      0.74
  TU45               577.00      0.82      0.94
  TU46               577.00      0.82      0.94
  TU47                -0.00      0.00      0.00
  TU48                 0.00      0.00      0.00
  TU49                 0.00      0.00      0.00
  TU5                307.00      0.43      0.30
  TU50                 0.00      0.00      0.00
  TU52                 0.00      0.00      0.00
  TU53                 0.00      0.00      0.00
  TU54                 0.00      0.00      0.00
  TU55                 0.00      0.00      0.00
  TU56                 0.00      0.00      0.00
  TU57                 0.00      0.00      0.00
  TU58                53.00      0.94      5.59
  TU59                53.00      0.15      0.07
  TU6                446.00      0.63      0.59
  TU61                 0.00      0.00      0.00
  TU62                90.00      0.48      0.79
  TU63                 0.00      0.00      0.00
  TU65                65.00      1.34     11.60
  TU66               155.00      0.51      0.67
  TU67               215.00      0.61      0.84
  TU68               215.00      0.61      0.84
  TU69               268.00      0.38      0.23
  TU7                115.00      1.93     20.17
  TU70               323.00      0.46      0.33
  TU71               323.00      0.46      0.33
  TU72               364.00      0.80      1.20
  TU73               492.00      1.09      2.08
  TU74               563.00      1.24      2.67
  TU75               563.00      1.24      2.67
  TU76               648.00      1.43      3.46
  TU77               713.00      1.58      4.13
  TU78                62.00      1.28     10.64
  TU79               118.00      1.55     11.59
  TU8                100.00      1.08      5.30
  TU80                60.00      1.24     10.02
  TU81               178.00      1.50      8.32
  TU82                65.00      1.16      8.11
  TU83               120.00      1.58     11.96
  TU84                 0.00      0.00      0.00
  TU85                66.00      0.48      0.97
  TU86                66.00      0.30      0.31
  TU87                66.00      0.35      0.45
  TU88               186.00      0.41      0.35
  TU89                57.00      1.01      6.38
  TU9                 57.00      0.96      5.57
  TU90                 0.00      0.00      0.00
  TU91                57.00      0.65      2.18
  TU92                57.00      0.26      0.24
  TU93                57.00      0.16      0.08
  TU94               115.00      1.31      7.84
  TU95               172.00      0.49      0.56
  TU96                 0.00      0.00      0.00
  TU97                50.00      0.89      5.03
  TU98                50.00      0.57      1.72
  TU99               222.00      0.49      0.49
  TU4000               0.00      0.00      0.00
  TU60                -0.00      0.00      0.00
  TU64                90.00      0.48      0.79
  TU51                 0.00      0.00      0.00
  2                   90.00      1.85     36.00
  3                    0.00      0.00      0.00
   
  Analysis ended Fri Sep  8 13:16:32 2023
