  Page 1                                    Fri Sep  8 13:26:39 2023

  ******************************************************************
  *                           E P A N E T                          *
  *                   Hydraulic and Water Quality                  *
  *                   Analysis for Pipe Networks                   *
  *                         Version 2.2                            *
  ******************************************************************
  
  Analysis begun Fri Sep  8 13:26:39 2023

   
  Node Results:
  ----------------------------------------------
                     Demand      Head  Pressure
  Node                 m3/h         m         m
  ----------------------------------------------
  3661                 0.00    428.96     50.82
  482                  0.00    428.96     82.96
  661                  0.00    424.43     94.43
  6610                 0.00    425.90     65.90
  6611                 0.00    426.15     91.15
  6612                 0.00    428.02     65.65
  6613                 0.00    427.27     72.27
  6615                 0.00    424.69     85.69
  6616                 0.00    424.70     63.70
  6617                 0.00    424.81     81.81
  6618                 0.00    424.82     76.82
  662                  0.00    428.69    100.69
  6620                 0.00    424.67    116.67
  6621                 0.00    424.67     96.67
  6622                 0.00    424.67     87.67
  6623                 0.00    424.67     73.67
  6624                 0.00    424.67     72.67
  6625                 0.00    388.34     76.34
  6626                 0.00    424.53    103.53
  6627                 0.00    423.21    102.21
  6628                 0.00    428.69     89.69
  6629                 0.00    428.69     88.69
  663                  0.00    428.43     87.43
  6630                 0.00    428.69     88.89
  6632                 0.00    428.69     88.69
  6633                 0.00    428.90     66.26
  6634                 0.00    428.92     57.92
  6635                 0.00    428.96     76.96
  6636                 0.00    428.96     72.96
  6637                 0.00    428.96     61.96
  6639                 0.00    427.45     67.45
  664                  0.00    428.18     80.18
  6640                 0.00    426.95     66.95
  6641                 0.00    427.82     69.14
  6642                 0.00    427.82     71.82
  6643                 0.00    428.18     76.18
  6644                 0.00    428.24     76.24
  6645                 0.00    428.27     78.27
  6646                 0.00    428.18     81.16
  6648                 0.00    428.18     82.17
  6649                 0.00    427.32     88.32
  665                  0.00    428.00     83.00
  666                  0.00    428.69     88.69
  6665                 0.00    428.96     63.82
  6666                 0.00    428.96     61.30
  667                  0.00    428.23     76.23
  668                  0.00    424.43     94.43
  669                  0.00    428.69     83.69
  1                    0.00    428.80     98.80
  10                  79.00    427.64     75.64
  100                  0.00    427.82     72.82
  100B                93.00    426.35     68.35
  101                  0.00    427.27     74.27
  103                  0.00    427.27     88.27
  104                  0.00    427.27     88.27
  105                  0.00    427.27     72.27
  106                  0.00    427.27     72.27
  107                  0.00    424.69     85.69
  108                 59.00    423.83     85.27
  109                  0.00    424.49     87.49
  11B                 99.00    427.92     84.92
  110                  0.00    424.82     78.82
  111                 56.00    424.81     86.03
  112                  0.00    424.82     82.82
  113                  0.00    424.81    101.81
  114                  0.00    424.81     76.81
  115                  0.00    424.81     78.81
  116                  0.00    424.81     79.81
  117                  0.00    424.81     81.81
  118                  0.00    424.81     85.81
  119                  0.00    424.81    102.00
  12                   0.00    427.65     97.31
  121                  0.00    424.81     76.01
  122                  0.00    424.81     76.91
  123                  0.00    424.81     78.81
  125                  0.00    424.81     73.81
  126                  0.00    424.81     76.81
  127                  0.00    424.81     81.48
  128                 66.00    424.69     62.69
  129                  0.00    424.57     68.57
  130                  0.00    424.49     83.41
  130B                 0.00    424.54     71.54
  132                 57.00    422.76     89.76
  134                  0.00    423.21    102.21
  135                 55.00    421.04    105.04
  137                 63.00    416.57    107.57
  139                  0.00    424.43     64.43
  14                  73.00    427.27     89.27
  140                  0.00    424.43     73.43
  141                  0.00    424.43     72.43
  142                  0.00    424.43     63.43
  143                  0.00    422.76     81.79
  144                  0.00    424.64     65.64
  146                  0.00    424.60     78.60
  147                  0.00    424.53    103.53
  148                  0.00    424.59     91.59
  149                  0.00    388.34     75.13
  15                   0.00    426.15     91.15
  150                 96.00    388.12     80.05
  151                  0.00    388.12     82.88
  152                  0.00    388.12     78.10
  153                  0.00    388.12     78.12
  154                  0.00    424.67     99.67
  157                  0.00    424.67    121.67
  158A                 0.00    424.67    103.67
  158B                 0.00    424.67    103.67
  16B                  0.00    427.28     93.28
  160                  0.00    428.96     61.96
  162                  0.00    428.96     60.96
  163                  0.00    428.96     54.96
  164                  0.00    428.96     69.30
  165                  0.00    428.96     67.66
  166                  0.00    428.96     67.95
  167                  0.00    428.96     58.32
  169                  0.00    428.96     62.46
  17A                263.00    425.37     90.37
  170                  0.00    428.96     69.96
  17B                  0.00    425.19     90.19
  171                  0.00    428.96     76.96
  172                  0.00    428.96     88.96
  18B                214.00    419.69     94.69
  19                   0.00    428.90     70.90
  2                    0.00    428.71    102.71
  20                   0.00    428.96     64.96
  2002                 0.00    428.69     78.69
  2003                 0.00    428.69     78.69
  21                  65.00    424.90     63.30
  22                   0.00    424.90     63.30
  222                  0.00    424.87     74.87
  24                   0.00    424.86     80.86
  25                   0.00    424.84     79.84
  26                   0.00    424.82     76.82
  27                   0.00    424.82     74.82
  28                   0.00    424.79     74.79
  29                   0.00    424.71     68.71
  3                    0.00    428.58     88.23
  30                   0.00    424.70     63.70
  3002                 0.00    428.96     42.96
  3004                 0.00    428.96     42.96
  3005                 0.00    428.96     42.96
  3008                 0.00    428.96     43.96
  3012                 0.00    428.96     58.23
  3013                 0.00    428.96     64.03
  3016                 0.00    428.96     63.96
  3017                 0.00    428.96     46.96
  3018                 0.00    428.96     51.96
  3019                 0.00    428.96     59.57
  3020                 0.00    428.96     60.85
  3024                 0.00    428.96     64.02
  31                   0.00    424.68     66.89
  3152                 0.00    428.96     62.76
  32                   0.00    424.69     66.69
  34                   0.00    424.67     73.65
  35                   0.00    424.67     87.67
  36                   0.00    424.67     96.67
  39                   0.00    424.67    111.67
  41                   0.00    424.67    117.67
  46                   0.00    428.96     52.96
  47                   0.00    428.96     70.78
  48                   0.00    428.96     84.96
  49                   0.00    428.96     76.96
  5                    0.00    428.50     81.50
  52                   0.00    428.96     77.96
  53                   0.00    428.92     72.92
  54                   0.00    428.86     83.86
  55                   0.00    428.74     98.74
  56                  60.00    428.71     94.71
  58                   0.00    428.71     95.71
  59                   0.00    428.71     99.71
  6                    0.00    428.24     76.24
  60                   0.00    428.58     83.58
  61                   0.00    428.58     89.58
  62                 105.00    424.06     70.06
  64                   0.00    428.69     97.69
  65                   0.00    428.69     88.69
  66                   0.00    428.69     89.69
  67                   0.00    428.69     96.69
  68                   0.00    428.69     89.69
  69                   0.00    428.69     77.69
  7                    0.00    428.29     75.29
  70                   0.00    428.69     88.69
  71                   0.00    428.69     91.69
  72                   0.00    428.15     72.15
  73                   0.00    428.17     73.17
  77                   0.00    428.15     72.15
  78                   0.00    428.15     88.01
  79                   0.00    428.29     75.29
  8                    0.00    428.27     78.27
  80                   0.00    428.18     79.18
  81                   0.00    428.18     69.18
  82                   0.00    428.18     70.18
  85                   0.00    428.69     89.69
  86                   0.00    428.69     91.69
  87                   0.00    428.06     68.06
  88                   0.00    428.02     75.02
  89                   0.00    427.91     60.91
  90                   0.00    427.82     71.82
  91                   0.00    427.45     55.45
  92                   0.00    425.90     65.90
  91B                222.00    425.39     65.39
  94                  72.00    426.77     87.77
  95                   0.00    426.61     83.61
  97                 140.00    419.74     88.74
  99                   0.00    427.91     77.91
  74                   0.00    428.16     69.45
  1074                 0.00    428.16     70.16
  11A                  0.00    426.13     83.13
  1011                 0.00    426.13     83.13
  4                    0.00    424.34    112.34
  9                    0.00    424.67    114.67
  0                -1420.00    429.00      0.00  Reservoir
  balsa             -517.00    424.90     -0.00  Reservoir
   
   
  Link Results:
  ----------------------------------------------
                       Flow  Velocity  Headloss
  Link                 m3/h       m/s    /1000m
  ----------------------------------------------
  TU1                 -0.00      0.00      0.00
  TU10                 0.00      0.00      0.00
  TU100                0.00      0.00      0.00
  TU101                0.00      0.00      0.00
  TU102                0.00      0.00      0.00
  TU103                0.00      0.00      0.00
  TU104                0.00      0.00      0.00
  TU105             1360.00      0.59      0.26
  TU106             1360.00      0.59      0.26
  TU107                0.00      0.00      0.00
  TU108             1360.00      0.59      0.26
  TU109             1360.00      0.59      0.26
  TU11                -0.00      0.00      0.00
  TU110             1360.00      0.59      0.26
  TU111                0.00      0.00      0.00
  TU112               -0.00      0.00      0.00
  TU113               60.00      0.32      0.38
  TU114               60.00      0.32      0.38
  TU115             1420.00      0.50      0.17
  TU116             1420.00      0.50      0.17
  TU117               -0.00      0.00      0.00
  TU118                0.00      0.00      0.00
  TU119             1420.00      0.50      0.17
  TU12                 0.00      0.00      0.00
  TU120             1420.00      0.50      0.17
  TU121                0.00      0.00      0.00
  TU122                0.00      0.00      0.00
  TU123               -0.00      0.00      0.00
  TU124                0.00      0.00      0.00
  TU125               -0.00      0.00      0.00
  TU126               -0.00      0.00      0.00
  TU127               -0.00      0.00      0.00
  TU128                0.00      0.00      0.00
  TU129                0.00      0.00      0.00
  TU13                 0.00      0.00      0.00
  TU130               -0.00      0.00      0.00
  TU131               -0.00      0.00      0.00
  TU132                0.00      0.00      0.00
  TU133               -0.00      0.00      0.00
  TU134              222.00      2.40     23.01
  TU135               -0.00      0.00      0.00
  TU136                0.00      0.00      0.00
  TU137                0.00      0.00      0.00
  TU138                0.00      0.00      0.00
  TU139                0.00      0.00      0.00
  TU14                73.00      0.16      0.07
  TU140                0.00      0.00      0.00
  TU141              105.00      1.77     17.05
  TU142              105.00      0.28      0.20
  TU143               -0.00      0.00      0.00
  TU144               93.00      1.00      4.64
  TU145              222.00      1.54      7.77
  TU146              315.00      1.37      4.78
  TU147              315.00      0.85      1.49
  TU148                0.00      0.00      0.00
  TU149               -0.00      0.00      0.00
  TU15                -0.00      0.00      0.00
  TU150               -0.00      0.00      0.00
  TU151              315.00      0.45      0.31
  TU152                0.00      0.00      0.00
  TU15301            315.00      0.45      0.31
  TU15302            315.00      0.45      0.31
  TU1074               0.00      0.00      0.00
  TU154              315.00      0.31      0.13
  TU155               79.00      1.33     10.11
  TU156              394.00      0.39      0.19
  TU157              499.00      0.49      0.30
  TU158                0.00      0.00      0.00
  TU159              499.00      0.49      0.30
  TU16              1420.00      0.26      0.03
  TU160                0.00      0.00      0.00
  TU161              499.00      0.49      0.30
  TU162              861.00      0.62      0.38
  TU163              861.00      0.62      0.38
  TU164              861.00      0.62      0.38
  TU166               -0.00      0.00      0.00
  TU167               -0.00      0.00      0.00
  TU168                0.00      0.00      0.00
  TU169                0.00      0.00      0.00
  TU17                59.00      1.05      6.80
  TU170                0.00      0.00      0.00
  TU171              861.00      0.62      0.38
  TU17201            140.00      1.84     15.88
  TU17202            140.00      1.84     15.88
  TU1011A             -0.00      0.00      0.00
  TU173              140.00      1.02      3.80
  TU174               72.00      1.28      9.78
  TU175              212.00      0.97      2.61
  TU176              550.00      0.54      0.36
  TU177              649.00      0.64      0.48
  TU178              550.00      0.54      0.36
  TU179              477.00      1.35      3.62
  TU18                59.00      0.67      2.32
  TU180              477.00      1.35      3.62
  TU181              214.00      1.80     11.68
  TU182              214.00      0.98      2.65
  TU183                0.00      0.00      0.00
  TU184                0.00      0.00      0.00
  TU185               -0.00      0.00      0.00
  TU186               -0.00      0.00      0.00
  TU187               -0.00      0.00      0.00
  TU188              393.00      0.28      0.09
  TU189              393.00      0.28      0.09
  TU19                 0.00      0.00      0.00
  TU190               -0.00      0.00      0.00
  TU191                0.00      0.00      0.00
  TU192                0.00      0.00      0.00
  TU193                0.00      0.00      0.00
  TU194               -0.00      0.00      0.00
  TU195                0.00      0.00      0.00
  TU196                0.00      0.00      0.00
  TU197               -0.00      0.00      0.00
  TU198                0.00      0.00      0.00
  TU199                0.00      0.00      0.00
  TU2                  0.00      0.00      0.00
  TU20                59.00      0.43      0.79
  TU200               -0.00      0.00      0.00
  TU201                0.00      0.00      0.00
  TU203                0.00      0.00      0.00
  TU204                0.00      0.00      0.00
  TU205                0.00      0.00      0.00
  TU21                -0.00      0.00      0.00
  TU22               452.00      0.25      0.06
  TU23               452.00      0.25      0.06
  TU24               452.00      0.25      0.06
  TU25               517.00      0.29      0.00
  TU26               337.00      0.33      0.15
  TU27               337.00      0.33      0.15
  TU28               337.00      0.33      0.15
  TU29               337.00      0.33      0.15
  TU3                  0.00      0.00      0.00
  TU30                 0.00      0.00      0.00
  TU31                -0.00      0.00      0.00
  TU32                 0.00      0.00      0.00
  TU33                 0.00      0.00      0.00
  TU34                 0.00      0.00      0.00
  TU35                 0.00      0.00      0.00
  TU36                 0.00      0.00      0.00
  TU37                -0.00      0.00      0.00
  TU38                 0.00      0.00      0.00
  TU39                -0.00      0.00      0.00
  TU4                315.00      0.45      0.31
  TU40                -0.00      0.00      0.00
  TU41                -0.00      0.00      0.00
  TU42                 0.00      0.00      0.00
  TU43                56.00      0.08      0.01
  TU44                56.00      0.08      0.01
  TU45                56.00      0.08      0.01
  TU46                56.00      0.08      0.01
  TU47                -0.00      0.00      0.00
  TU48                 0.00      0.00      0.00
  TU49                 0.00      0.00      0.00
  TU5                315.00      0.45      0.31
  TU50                 0.00      0.00      0.00
  TU52                 0.00      0.00      0.00
  TU53                 0.00      0.00      0.00
  TU54                 0.00      0.00      0.00
  TU55                 0.00      0.00      0.00
  TU56                 0.00      0.00      0.00
  TU57                 0.00      0.00      0.00
  TU58                 0.00      0.00      0.00
  TU59                 0.00      0.00      0.00
  TU6                 -0.00      0.00      0.00
  TU61                 0.00      0.00      0.00
  TU62                96.00      0.51      0.88
  TU63                 0.00      0.00      0.00
  TU65                 0.00      0.00      0.00
  TU66                96.00      0.32      0.28
  TU67                96.00      0.27      0.20
  TU68                96.00      0.27      0.20
  TU69                96.00      0.14      0.04
  TU7                  0.00      0.00      0.00
  TU70                96.00      0.14      0.04
  TU71                96.00      0.14      0.04
  TU72               175.00      0.39      0.32
  TU73               175.00      0.39      0.32
  TU74               175.00      0.39      0.32
  TU75               175.00      0.39      0.32
  TU76               175.00      0.39      0.32
  TU77               241.00      0.53      0.56
  TU78                63.00      1.30     10.95
  TU79               118.00      1.55     11.59
  TU8                  0.00      0.00      0.00
  TU80                 0.00      0.00      0.00
  TU81               118.00      0.99      3.92
  TU82                 0.00      0.00      0.00
  TU83                57.00      0.75      3.07
  TU84                 0.00      0.00      0.00
  TU85                 0.00      0.00      0.00
  TU86                 0.00      0.00      0.00
  TU87                 0.00      0.00      0.00
  TU88                57.00      0.13      0.04
  TU89                 0.00      0.00      0.00
  TU9                  0.00      0.00      0.00
  TU90                 0.00      0.00      0.00
  TU91                -0.00      0.00      0.00
  TU92                -0.00      0.00      0.00
  TU93                 0.00      0.00      0.00
  TU94                 0.00      0.00      0.00
  TU95                 0.00      0.00      0.00
  TU96                 0.00      0.00      0.00
  TU97                 0.00      0.00      0.00
  TU98                 0.00      0.00      0.00
  TU99                 0.00      0.00      0.00
  TU4000               0.00      0.00      0.00
  TU60                 0.00      0.00      0.00
  TU64                96.00      0.51      0.89
  TU51                 0.00      0.00      0.00
  2                   96.00      1.98     36.00
  3                    0.00      0.00      0.00
   
  Analysis ended Fri Sep  8 13:26:39 2023
