  Page 1                                    Fri Sep  8 13:08:47 2023

  ******************************************************************
  *                           E P A N E T                          *
  *                   Hydraulic and Water Quality                  *
  *                   Analysis for Pipe Networks                   *
  *                         Version 2.2                            *
  ******************************************************************
  
  Analysis begun Fri Sep  8 13:08:47 2023

   
  Node Results:
  ----------------------------------------------
                     Demand      Head  Pressure
  Node                 m3/h         m         m
  ----------------------------------------------
  3661                 0.00    429.00     50.86
  482                  0.00    428.77     82.77
  661                  0.00    427.59     97.59
  6610                 0.00    428.88     68.88
  6611                 0.00    428.92     93.92
  6612                 0.00    428.88     66.51
  6613                 0.00    428.92     73.92
  6615                 0.00    427.59     88.59
  6616                 0.00    427.59     66.59
  6617                 0.00    427.42     84.42
  6618                 0.00    427.58     79.58
  662                  0.00    428.97    100.97
  6620                 0.00    427.59    119.59
  6621                 0.00    427.59     99.59
  6622                 0.00    427.59     90.59
  6623                 0.00    427.59     76.59
  6624                 0.00    427.59     75.59
  6625                 0.00    391.59     79.59
  6626                 0.00    427.59    106.59
  6627                 0.00    427.59    106.59
  6628                 0.00    428.97     89.97
  6629                 0.00    428.97     88.97
  663                  0.00    428.95     87.95
  6630                 0.00    428.97     89.17
  6632                 0.00    428.97     88.97
  6633                 0.00    428.99     66.35
  6634                 0.00    428.99     57.99
  6635                 0.00    428.99     76.99
  6636                 0.00    428.99     72.99
  6637                 0.00    428.98     61.98
  6639                 0.00    428.88     68.88
  664                  0.00    428.95     80.95
  6640                 0.00    428.88     68.88
  6641                 0.00    428.88     70.20
  6642                 0.00    428.88     72.88
  6643                 0.00    428.90     76.90
  6644                 0.00    428.91     76.91
  6645                 0.00    428.91     78.91
  6646                 0.00    428.95     81.93
  6648                 0.00    428.95     82.94
  6649                 0.00    428.94     89.94
  665                  0.00    428.94     83.94
  666                  0.00    428.97     88.97
  6665                 0.00    428.98     63.84
  6666                 0.00    428.98     61.32
  667                  0.00    428.91     76.91
  668                  0.00    427.59     97.59
  669                  0.00    428.97     83.97
  1                    0.00    428.98     98.98
  10                   0.00    428.90     76.90
  100                  0.00    428.88     73.88
  100B                 0.00    428.88     70.88
  101                  0.00    428.92     75.92
  103                  0.00    428.92     89.92
  104                  0.00    428.92     89.92
  105                  0.00    428.92     73.92
  106                  0.00    428.92     73.92
  107                  0.00    427.59     88.59
  108                  0.00    427.59     89.03
  109                  0.00    427.59     90.59
  11B                  0.00    428.94     85.94
  110                  0.00    427.57     81.57
  111                  0.00    427.54     88.76
  112                  0.00    427.56     85.56
  113                  0.00    427.50    104.50
  114                  0.00    427.42     79.42
  115                  0.00    427.42     81.42
  116                  0.00    427.42     82.42
  117                  0.00    427.42     84.42
  118                  0.00    427.42     88.42
  119                  0.00    427.42    104.61
  12                 119.00    428.92     98.58
  121                  0.00    427.43     78.63
  122                  0.00    427.42     79.52
  123                  0.00    427.42     81.42
  125                  0.00    427.42     76.42
  126                  0.00    427.04     79.04
  127                134.00    425.47     82.14
  128                  0.00    427.59     65.59
  129                  0.00    427.59     71.59
  130                  0.00    427.59     86.51
  130B                 0.00    427.59     74.59
  132                  0.00    427.59     94.59
  134                  0.00    427.59    106.59
  135                  0.00    427.59    111.59
  137                  0.00    427.59    118.59
  139                  0.00    427.59     67.59
  14                   0.00    428.92     90.92
  140                  0.00    427.59     76.59
  141                  0.00    427.59     75.59
  142                  0.00    427.59     66.59
  143                  0.00    427.59     86.62
  144                  0.00    427.59     68.59
  146                  0.00    427.59     81.59
  147                  0.00    427.59    106.59
  148                  0.00    427.59     94.59
  149                  0.00    391.59     78.38
  15                   0.00    428.92     93.92
  150                  0.00    391.59     83.52
  151                  0.00    391.59     86.35
  152                  0.00    391.59     81.57
  153                  0.00    391.59     81.59
  154                  0.00    427.59    102.59
  157                  0.00    427.59    124.59
  158A                 0.00    427.59    106.59
  158B                 0.00    427.59    106.59
  16B                  0.00    428.92     94.92
  160                  0.00    428.98     61.98
  162                  0.00    428.98     60.98
  163                  0.00    428.98     54.98
  164                  0.00    428.98     69.32
  165                  0.00    428.98     67.68
  166                  0.00    428.98     67.97
  167                  0.00    428.98     58.34
  169                  0.00    428.98     62.48
  17A                  0.00    428.92     93.92
  170                  0.00    428.98     69.98
  17B                  0.00    428.92     93.92
  171                  0.00    428.99     76.99
  172                  0.00    428.99     88.99
  18B                  0.00    428.92    103.92
  19                   0.00    428.99     70.99
  2                    0.00    428.98    102.98
  20                   0.00    429.00     65.00
  2002                 0.00    428.97     78.97
  2003                 0.00    428.97     78.97
  21                   0.00    427.60     66.00
  22                   0.00    427.60     66.00
  222                  0.00    427.59     77.59
  24                   0.00    427.59     83.59
  25                   0.00    427.59     82.59
  26                   0.00    427.58     79.58
  27                   0.00    427.59     77.59
  28                   0.00    427.59     77.59
  29                   0.00    427.59     71.59
  3                    0.00    428.97     88.62
  30                   0.00    427.59     66.59
  3002                 0.00    429.00     43.00
  3004                 0.00    429.00     43.00
  3005                 0.00    429.00     43.00
  3008                 0.00    429.00     44.00
  3012                 0.00    429.00     58.27
  3013                 0.00    429.00     64.07
  3016                 0.00    429.00     64.00
  3017                 0.00    429.00     47.00
  3018                 0.00    428.99     51.99
  3019                 0.00    429.00     59.61
  3020                 0.00    429.00     60.89
  3024                 0.00    429.00     64.06
  31                   0.00    427.59     69.80
  3152                 0.00    429.00     62.80
  32                   0.00    427.59     69.59
  34                   0.00    427.59     76.57
  35                   0.00    427.59     90.59
  36                   0.00    427.59     99.59
  39                   0.00    427.59    114.59
  41                   0.00    427.59    120.59
  46                   0.00    428.99     52.99
  47                   0.00    428.98     70.80
  48                   0.00    428.68     84.68
  49                   0.00    428.01     76.01
  5                    0.00    428.96     81.96
  52                  72.00    427.98     76.98
  53                   0.00    428.99     72.99
  54                   0.00    428.99     83.99
  55                   0.00    428.98     98.98
  56                   0.00    428.98     94.98
  58                   0.00    428.98     95.98
  59                   0.00    428.98     99.98
  6                    0.00    428.91     76.91
  60                   0.00    428.97     83.97
  61                   0.00    428.97     89.97
  62                 105.00    424.73     70.73
  64                   0.00    428.97     97.97
  65                   0.00    428.97     88.97
  66                   0.00    428.97     89.97
  67                   0.00    428.97     96.97
  68                   0.00    428.97     89.97
  69                   0.00    428.97     77.97
  7                    0.00    428.95     75.95
  70                   0.00    428.97     88.97
  71                   0.00    428.97     91.97
  72                   0.00    428.83     72.83
  73                   0.00    428.90     73.90
  77                   0.00    428.83     72.83
  78                   0.00    428.83     88.69
  79                   0.00    428.95     75.95
  8                    0.00    428.91     78.91
  80                   0.00    428.95     79.95
  81                   0.00    428.95     69.95
  82                   0.00    428.95     70.95
  85                   0.00    428.97     89.97
  86                   0.00    428.97     91.97
  87                 121.00    428.88     68.88
  88                   0.00    428.88     75.88
  89                   0.00    428.88     61.88
  90                   0.00    428.88     72.88
  91                   0.00    428.88     56.88
  92                   0.00    428.88     68.88
  91B                  0.00    428.88     68.88
  94                   0.00    428.94     89.94
  95                   0.00    428.94     85.94
  97                   0.00    428.94     97.94
  99                   0.00    428.88     78.88
  74                   0.00    428.90     70.19
  1074                 0.00    428.90     70.90
  11A                  0.00    428.94     85.94
  1011                 0.00    428.94     85.94
  4                    0.00    427.59    115.59
  9                    0.00    427.59    117.59
  0                 -417.00    429.00      0.00  Reservoir
  balsa             -134.00    427.60     -0.00  Reservoir
   
   
  Link Results:
  ----------------------------------------------
                       Flow  Velocity  Headloss
  Link                 m3/h       m/s    /1000m
  ----------------------------------------------
  TU1                 -0.00      0.00      0.00
  TU10                 0.00      0.00      0.00
  TU100                0.00      0.00      0.00
  TU101                0.00      0.00      0.00
  TU102                0.00      0.00      0.00
  TU103                0.00      0.00      0.00
  TU104                0.00      0.00      0.00
  TU105              345.00      0.15      0.02
  TU106              345.00      0.15      0.02
  TU107                0.00      0.00      0.00
  TU108              345.00      0.15      0.02
  TU109              345.00      0.15      0.02
  TU11                -0.00      0.00      0.00
  TU110              345.00      0.15      0.02
  TU111                0.00      0.00      0.00
  TU112               -0.00      0.00      0.00
  TU113                0.00      0.00      0.00
  TU114                0.00      0.00      0.00
  TU115              345.00      0.12      0.01
  TU116              345.00      0.12      0.01
  TU117                0.00      0.00      0.00
  TU118                0.00      0.00      0.00
  TU119              345.00      0.12      0.01
  TU12                 0.00      0.00      0.00
  TU120              345.00      0.12      0.01
  TU121                0.00      0.00      0.00
  TU122                0.00      0.00      0.00
  TU123               -0.00      0.00      0.00
  TU124               72.00      0.82      3.33
  TU125               72.00      0.53      1.13
  TU126               72.00      0.33      0.37
  TU127               72.00      0.33      0.37
  TU128                0.00      0.00      0.00
  TU129                0.00      0.00      0.00
  TU13                 0.00      0.00      0.00
  TU130                0.00      0.00      0.00
  TU131               -0.00      0.00      0.00
  TU132                0.00      0.00      0.00
  TU133               -0.00      0.00      0.00
  TU134               -0.00      0.00      0.00
  TU135               -0.00      0.00      0.00
  TU136                0.00      0.00      0.00
  TU137               72.00      0.10      0.02
  TU138               72.00      0.10      0.02
  TU139               72.00      0.07      0.01
  TU14                -0.00      0.00      0.00
  TU140               72.00      0.07      0.01
  TU141              105.00      1.77     17.05
  TU142              105.00      0.28      0.20
  TU143               -0.00      0.00      0.00
  TU144               -0.00      0.00      0.00
  TU145               -0.00      0.00      0.00
  TU146               -0.00      0.00      0.00
  TU147               -0.00      0.00      0.00
  TU148                0.00      0.00      0.00
  TU149               -0.00      0.00      0.00
  TU15                -0.00      0.00      0.00
  TU150               -0.00      0.00      0.00
  TU151               -0.00      0.00      0.00
  TU152                0.00      0.00      0.00
  TU15301            121.00      0.17      0.06
  TU15302            121.00      0.17      0.06
  TU1074               0.00      0.00      0.00
  TU154              121.00      0.12      0.02
  TU155               -0.00      0.00      0.00
  TU156              121.00      0.12      0.02
  TU157              226.00      0.22      0.07
  TU158                0.00      0.00      0.00
  TU159              226.00      0.22      0.07
  TU16               417.00      0.08      0.00
  TU160                0.00      0.00      0.00
  TU161              226.00      0.22      0.07
  TU162              119.00      0.09      0.01
  TU163              119.00      0.09      0.01
  TU164              119.00      0.09      0.01
  TU166               -0.00      0.00      0.00
  TU167               -0.00      0.00      0.00
  TU168                0.00      0.00      0.00
  TU169                0.00      0.00      0.00
  TU17                -0.00      0.00      0.00
  TU170                0.00      0.00      0.00
  TU171              119.00      0.09      0.01
  TU17201             -0.00      0.00      0.00
  TU17202              0.00      0.00      0.00
  TU1011A             -0.00      0.00      0.00
  TU173               -0.00      0.00      0.00
  TU174               -0.00      0.00      0.00
  TU175               -0.00      0.00      0.00
  TU176              119.00      0.12      0.02
  TU177              119.00      0.12      0.02
  TU178               -0.00      0.00      0.00
  TU179                0.00      0.00      0.00
  TU18                 0.00      0.00      0.00
  TU180                0.00      0.00      0.00
  TU181                0.00      0.00      0.00
  TU182                0.00      0.00      0.00
  TU183                0.00      0.00      0.00
  TU184                0.00      0.00      0.00
  TU185              134.00      0.30      0.20
  TU186               -0.00      0.00      0.00
  TU187               -0.00      0.00      0.00
  TU188              134.00      0.10      0.01
  TU189              134.00      0.10      0.01
  TU19                 0.00      0.00      0.00
  TU190               -0.00      0.00      0.00
  TU191                0.00      0.00      0.00
  TU192                0.00      0.00      0.00
  TU193                0.00      0.00      0.00
  TU194               -0.00      0.00      0.00
  TU195                0.00      0.00      0.00
  TU196                0.00      0.00      0.00
  TU197               -0.00      0.00      0.00
  TU198                0.00      0.00      0.00
  TU199                0.00      0.00      0.00
  TU2                  0.00      0.00      0.00
  TU20                -0.00      0.00      0.00
  TU200               -0.00      0.00      0.00
  TU201                0.00      0.00      0.00
  TU203                0.00      0.00      0.00
  TU204                0.00      0.00      0.00
  TU205                0.00      0.00      0.00
  TU21                -0.00      0.00      0.00
  TU22               134.00      0.07      0.01
  TU23               134.00      0.07      0.01
  TU24               134.00      0.07      0.01
  TU25               134.00      0.07      0.00
  TU26                 0.00      0.00      0.00
  TU27                 0.00      0.00      0.00
  TU28                 0.00      0.00      0.00
  TU29                 0.00      0.00      0.00
  TU3                  0.00      0.00      0.00
  TU30                 0.00      0.00      0.00
  TU31                -0.00      0.00      0.00
  TU32                 0.00      0.00      0.00
  TU33                 0.00      0.00      0.00
  TU34                 0.00      0.00      0.00
  TU35                -0.00      0.00      0.00
  TU36                 0.00      0.00      0.00
  TU37                -0.00      0.00      0.00
  TU38                 0.00      0.00      0.00
  TU39               134.00      1.53     10.38
  TU4                 -0.00      0.00      0.00
  TU40               134.00      0.98      3.51
  TU41               134.00      0.30      0.19
  TU42                 0.00      0.00      0.00
  TU43               134.00      0.19      0.07
  TU44               134.00      0.19      0.07
  TU45               134.00      0.19      0.07
  TU46               134.00      0.19      0.07
  TU47                -0.00      0.00      0.00
  TU48                 0.00      0.00      0.00
  TU49                 0.00      0.00      0.00
  TU5                  0.00      0.00      0.00
  TU50                 0.00      0.00      0.00
  TU52                 0.00      0.00      0.00
  TU53                 0.00      0.00      0.00
  TU54                 0.00      0.00      0.00
  TU55                 0.00      0.00      0.00
  TU56                 0.00      0.00      0.00
  TU57                 0.00      0.00      0.00
  TU58                 0.00      0.00      0.00
  TU59                 0.00      0.00      0.00
  TU6                134.00      0.19      0.07
  TU61                 0.00      0.00      0.00
  TU62                -0.00      0.00      0.00
  TU63                 0.00      0.00      0.00
  TU65                 0.00      0.00      0.00
  TU66                 0.00      0.00      0.00
  TU67                 0.00      0.00      0.00
  TU68                 0.00      0.00      0.00
  TU69                 0.00      0.00      0.00
  TU7                  0.00      0.00      0.00
  TU70                 0.00      0.00      0.00
  TU71                 0.00      0.00      0.00
  TU72                 0.00      0.00      0.00
  TU73                 0.00      0.00      0.00
  TU74                 0.00      0.00      0.00
  TU75                 0.00      0.00      0.00
  TU76                 0.00      0.00      0.00
  TU77                 0.00      0.00      0.00
  TU78                 0.00      0.00      0.00
  TU79                 0.00      0.00      0.00
  TU8                  0.00      0.00      0.00
  TU80                 0.00      0.00      0.00
  TU81                 0.00      0.00      0.00
  TU82                 0.00      0.00      0.00
  TU83                 0.00      0.00      0.00
  TU84                 0.00      0.00      0.00
  TU85                 0.00      0.00      0.00
  TU86                 0.00      0.00      0.00
  TU87                 0.00      0.00      0.00
  TU88                 0.00      0.00      0.00
  TU89                 0.00      0.00      0.00
  TU9                  0.00      0.00      0.00
  TU90                 0.00      0.00      0.00
  TU91                -0.00      0.00      0.00
  TU92                -0.00      0.00      0.00
  TU93                 0.00      0.00      0.00
  TU94                 0.00      0.00      0.00
  TU95                 0.00      0.00      0.00
  TU96                 0.00      0.00      0.00
  TU97                 0.00      0.00      0.00
  TU98                 0.00      0.00      0.00
  TU99                 0.00      0.00      0.00
  TU4000               0.00      0.00      0.00
  TU60                -0.00      0.00      0.00
  TU64                 0.00      0.00      0.00
  TU51                 0.00      0.00      0.00
  2                   -0.00      0.00     36.00
  3                    0.00      0.00      0.00
   
  Analysis ended Fri Sep  8 13:08:47 2023
