  Page 1                                    Fri Sep  8 13:06:44 2023

  ******************************************************************
  *                           E P A N E T                          *
  *                   Hydraulic and Water Quality                  *
  *                   Analysis for Pipe Networks                   *
  *                         Version 2.2                            *
  ******************************************************************
  
  Analysis begun Fri Sep  8 13:06:44 2023

   
  Node Results:
  ----------------------------------------------
                     Demand      Head  Pressure
  Node                 m3/h         m         m
  ----------------------------------------------
  3661                 0.00    428.91     50.77
  482                  0.00    428.54     82.54
  661                  0.00    424.87     94.87
  6610                 0.00    428.31     68.31
  6611                 0.00    428.40     93.40
  6612                 0.00    428.32     65.95
  6613                 0.00    428.25     73.25
  6615                 0.00    425.89     86.89
  6616                 0.00    425.55     64.55
  6617                 0.00    425.70     82.70
  6618                 0.00    425.81     77.81
  662                  0.00    428.63    100.63
  6620                 0.00    425.45    117.45
  6621                 0.00    425.45     97.45
  6622                 0.00    425.45     88.45
  6623                 0.00    425.45     74.45
  6624                 0.00    425.45     73.45
  6625                 0.00    388.07     76.07
  6626                 0.00    424.85    103.85
  6627                 0.00    423.72    102.72
  6628                 0.00    427.83     88.83
  6629                 0.00    428.19     88.19
  663                  0.00    428.53     87.53
  6630                 0.00    428.29     88.49
  6632                 0.00    428.40     88.40
  6633                 0.00    428.83     66.19
  6634                 0.00    428.86     57.86
  6635                 0.00    428.78     76.78
  6636                 0.00    428.78     72.78
  6637                 0.00    428.76     61.76
  6639                 0.00    428.31     68.31
  664                  0.00    428.47     80.47
  6640                 0.00    428.31     68.31
  6641                 0.00    428.31     69.63
  6642                 0.00    428.31     72.31
  6643                 0.00    428.34     76.34
  6644                 0.00    428.39     76.39
  6645                 0.00    428.41     78.41
  6646                 0.00    424.81     77.79
  6648                 0.00    425.08     79.07
  6649                 0.00    428.35     89.35
  665                  0.00    428.45     83.45
  666                  0.00    428.29     88.29
  6665                 0.00    428.76     63.62
  6666                 0.00    428.76     61.10
  667                  0.00    428.38     76.38
  668                  0.00    424.86     94.86
  669                  0.00    428.12     83.12
  1                    0.00    428.72     98.72
  10                   0.00    428.34     76.34
  100                  0.00    428.31     73.31
  100B                 0.00    428.31     70.31
  101                 48.00    428.17     75.17
  103                  0.00    428.38     89.38
  104                  0.00    428.38     89.38
  105                  0.00    428.25     73.25
  106                  0.00    428.25     73.25
  107                  0.00    425.89     86.89
  108                  0.00    425.89     87.33
  109                  0.00    425.89     88.89
  11B                  0.00    428.45     85.45
  110                  0.00    425.81     79.81
  111                  0.00    425.80     87.02
  112                  0.00    425.80     83.80
  113                  0.00    425.78    102.78
  114                  0.00    425.73     77.73
  115                  0.00    425.70     79.70
  116                  0.00    425.70     80.70
  117                  0.00    425.70     82.70
  118                  0.00    425.70     86.70
  119                  0.00    425.70    102.89
  12                   0.00    428.43     98.09
  121                  0.00    425.76     76.96
  122                 69.00    421.61     73.71
  123                  0.00    425.13     79.13
  125                  0.00    425.76     74.76
  126                  0.00    425.76     77.76
  127                  0.00    425.76     82.43
  128                  0.00    425.54     63.54
  129                  0.00    425.24     69.24
  130                  0.00    425.03     83.95
  130B                 0.00    425.15     72.15
  132                 59.00    418.19     85.19
  134                  0.00    423.72    102.72
  135                 51.00    421.69    105.69
  137                 63.00    417.22    108.22
  139                  0.00    424.69     64.69
  14                  84.00    428.38     90.38
  140                 59.00    424.69     73.69
  141                  0.00    424.69     72.69
  142                  0.00    424.69     63.69
  143                 63.00    415.26     74.29
  144                  0.00    425.41     66.41
  146                  0.00    425.15     79.15
  147                  0.00    424.85    103.85
  148                  0.00    425.11     92.11
  149                 60.00    387.83     74.62
  15                   0.00    428.40     93.40
  150                  0.00    387.58     79.51
  151                 82.00    386.54     81.30
  152                 68.00    384.65     74.63
  153                  0.00    385.30     75.30
  154                  0.00    425.45    100.45
  157                  0.00    425.45    122.45
  158A                 0.00    425.45    104.45
  158B                 0.00    425.45    104.45
  16B                  0.00    428.40     94.40
  160                  0.00    428.76     61.76
  162                  0.00    428.76     60.76
  163                  0.00    428.76     54.76
  164                  0.00    428.76     69.10
  165                  0.00    428.76     67.46
  166                  0.00    428.76     67.75
  167                  0.00    428.76     58.12
  169                  0.00    428.76     62.26
  17A                  0.00    428.40     93.40
  170                104.00    428.76     69.76
  17B                  0.00    428.40     93.40
  171                  0.00    428.78     76.78
  172                  0.00    428.78     88.78
  18B                  0.00    428.40    103.40
  19                   0.00    428.83     70.83
  2                    0.00    428.65    102.65
  20                   0.00    428.91     64.91
  2002                 0.00    428.12     78.12
  2003                 0.00    428.12     78.12
  21                  63.00    425.95     64.35
  22                   0.00    425.95     64.35
  222                  0.00    425.91     75.91
  24                   0.00    425.89     81.89
  25                   0.00    425.85     80.85
  26                   0.00    425.81     77.81
  27                   0.00    425.81     75.81
  28                   0.00    425.75     75.75
  29                   0.00    425.58     69.58
  3                    0.00    428.59     88.24
  30                   0.00    425.56     64.56
  3002                 0.00    428.91     42.91
  3004                 0.00    428.91     42.91
  3005                 0.00    428.91     42.91
  3008                 0.00    428.91     43.91
  3012                 0.00    428.91     58.18
  3013                 0.00    428.91     63.98
  3016               104.00    428.91     63.91
  3017               139.00    428.91     46.91
  3018                 0.00    428.80     51.80
  3019                 0.00    428.91     59.52
  3020                 0.00    428.91     60.80
  3024                 0.00    428.91     63.97
  31                   0.00    425.49     67.70
  3152                 0.00    428.91     62.71
  32                   0.00    425.51     67.51
  34                   0.00    425.45     74.43
  35                   0.00    425.45     88.45
  36                   0.00    425.45     97.45
  39                   0.00    425.45    112.45
  41                   0.00    425.45    118.45
  46                 190.00    428.80     52.80
  47                   0.00    428.76     70.58
  48                   0.00    428.45     84.45
  49                   0.00    427.76     75.76
  5                    0.00    428.56     81.56
  52                  73.00    427.74     76.74
  53                 144.00    425.69     69.69
  54                   0.00    428.79     83.79
  55                   0.00    427.67     97.67
  56                   0.00    427.15     93.15
  58                 120.00    422.65     89.65
  59                 170.00    418.65     89.65
  6                    0.00    428.39     76.39
  60                   0.00    428.59     83.59
  61                   0.00    428.59     89.59
  62                   0.00    428.31     74.31
  64                  69.00    428.52     97.52
  65                  88.00    428.02     88.02
  66                   0.00    428.40     89.40
  67                 115.00    428.30     96.30
  68                   0.00    428.29     89.29
  69                   0.00    428.29     77.29
  7                    0.00    428.49     75.49
  70                 109.00    427.83     87.83
  71                   0.00    428.19     91.19
  72                 100.00    428.31     72.31
  73                 170.00    428.33     73.33
  77                   0.00    428.31     72.31
  78                   0.00    428.31     88.17
  79                   0.00    428.49     75.49
  8                    0.00    428.41     78.41
  80                   0.00    428.37     79.37
  81                  62.00    423.67     64.67
  82                 129.00    424.04     66.04
  85                   0.00    427.83     88.83
  86                   0.00    427.83     90.83
  87                   0.00    428.32     68.32
  88                   0.00    428.32     75.32
  89                  81.00    428.31     61.31
  90                   0.00    428.31     72.31
  91                   0.00    428.31     56.31
  92                   0.00    428.31     68.31
  91B                  0.00    428.31     68.31
  94                   0.00    428.35     89.35
  95                   0.00    428.11     85.11
  97                   0.00    427.96     96.96
  99                   0.00    428.31     78.31
  74                  79.00    426.02     67.31
  1074                 0.00    428.33     70.33
  11A                 76.00    427.88     84.88
  1011                 0.00    427.96     84.96
  4                    0.00    424.07    112.07
  9                    0.00    425.45    115.45
  0                -2254.00    429.00      0.00  Reservoir
  balsa             -637.00    425.95     -0.00  Reservoir
   
   
  Link Results:
  ----------------------------------------------
                       Flow  Velocity  Headloss
  Link                 m3/h       m/s    /1000m
  ----------------------------------------------
  TU1                 -0.00      0.00      0.00
  TU10                 0.00      0.00      0.00
  TU100              224.00      0.50      0.50
  TU101              224.00      0.32      0.17
  TU102               88.00      1.57     14.12
  TU103              312.00      0.44      0.31
  TU104              381.00      0.54      0.44
  TU105              829.00      0.36      0.11
  TU106              829.00      0.36      0.11
  TU107                0.00      0.00      0.00
  TU108              829.00      0.36      0.11
  TU109             1210.00      0.53      0.21
  TU11                48.00      0.22      0.18
  TU110             1210.00      0.53      0.21
  TU111              170.00      2.24     22.74
  TU112              290.00      2.12     14.52
  TU113              290.00      1.54      6.66
  TU114              290.00      1.54      6.66
  TU115             1500.00      0.53      0.19
  TU116             1500.00      0.53      0.19
  TU117              144.00      1.55     10.34
  TU118                0.00      0.00      0.00
  TU119             1500.00      0.53      0.19
  TU12                 0.00      0.00      0.00
  TU120             1644.00      0.58      0.22
  TU121                0.00      0.00      0.00
  TU122                0.00      0.00      0.00
  TU123               -0.00      0.00      0.00
  TU124               73.00      0.83      3.42
  TU125               73.00      0.53      1.16
  TU126               73.00      0.33      0.38
  TU127               73.00      0.33      0.38
  TU128                0.00      0.00      0.00
  TU129                0.00      0.00      0.00
  TU13                 0.00      0.00      0.00
  TU130               -0.00      0.00      0.00
  TU131               -0.00      0.00      0.00
  TU132                0.00      0.00      0.00
  TU133               -0.00      0.00      0.00
  TU134               -0.00      0.00      0.00
  TU135               -0.00      0.00      0.00
  TU136                0.00      0.00      0.00
  TU137               73.00      0.10      0.02
  TU138              177.00      0.25      0.11
  TU139              177.00      0.17      0.05
  TU14               132.00      0.29      0.19
  TU140              367.00      0.36      0.17
  TU141                0.00      0.00      0.00
  TU142              100.00      0.27      0.19
  TU143               -0.00      0.00      0.00
  TU144               -0.00      0.00      0.00
  TU145               -0.00      0.00      0.00
  TU146               -0.00      0.00      0.00
  TU147               -0.00      0.00      0.00
  TU148               -0.00      0.00      0.00
  TU149               -0.00      0.00      0.00
  TU15                -0.00      0.00      0.00
  TU150               -0.00      0.00      0.00
  TU151               -0.00      0.00      0.00
  TU152               -0.00      0.00      0.00
  TU15301            160.00      0.23      0.09
  TU15302             81.00      0.11      0.03
  TU1074              79.00      1.04      5.56
  TU154              330.00      0.32      0.14
  TU155               -0.00      0.00      0.00
  TU156              330.00      0.32      0.14
  TU157              430.00      0.42      0.23
  TU158                0.00      0.00      0.00
  TU159              430.00      0.42      0.23
  TU16              2254.00      0.41      0.08
  TU160                0.00      0.00      0.00
  TU161              430.00      0.42      0.23
  TU162              399.00      0.29      0.09
  TU163              399.00      0.29      0.09
  TU164              399.00      0.29      0.09
  TU166               62.00      1.28     10.64
  TU167              129.00      1.70     13.66
  TU168              129.00      1.70     13.66
  TU169              191.00      1.61      9.47
  TU17                -0.00      0.00      0.00
  TU170              191.00      0.87      2.15
  TU171              208.00      0.15      0.03
  TU17201             76.00      1.00      5.18
  TU17202              0.00      0.00      0.00
  TU1011A             76.00      1.00      5.18
  TU173               76.00      0.56      1.25
  TU174               -0.00      0.00      0.00
  TU175               76.00      0.35      0.41
  TU176              132.00      0.13      0.03
  TU177              132.00      0.13      0.03
  TU178              132.00      0.13      0.03
  TU179                0.00      0.00      0.00
  TU18                 0.00      0.00      0.00
  TU180                0.00      0.00      0.00
  TU181                0.00      0.00      0.00
  TU182                0.00      0.00      0.00
  TU183                0.00      0.00      0.00
  TU184                0.00      0.00      0.00
  TU185               69.00      0.15      0.06
  TU186               -0.00      0.00      0.00
  TU187               -0.00      0.00      0.00
  TU188              574.00      0.41      0.18
  TU189              574.00      0.41      0.18
  TU19                 0.00      0.00      0.00
  TU190               68.00      0.89      4.23
  TU191                0.00      0.00      0.00
  TU192                0.00      0.00      0.00
  TU193                0.00      0.00      0.00
  TU194               -0.00      0.00      0.00
  TU195                0.00      0.00      0.00
  TU196                0.00      0.00      0.00
  TU197               -0.00      0.00      0.00
  TU198                0.00      0.00      0.00
  TU199                0.00      0.00      0.00
  TU2                  0.00      0.00      0.00
  TU20                 0.00      0.00      0.00
  TU200               -0.00      0.00      0.00
  TU201                0.00      0.00      0.00
  TU203                0.00      0.00      0.00
  TU204                0.00      0.00      0.00
  TU205              104.00      0.05      0.00
  TU21               150.00      1.26      6.08
  TU22               574.00      0.32      0.10
  TU23               574.00      0.32      0.10
  TU24               574.00      0.32      0.10
  TU25               637.00      0.35      0.12
  TU26               505.00      0.50      0.31
  TU27               505.00      0.50      0.31
  TU28               505.00      0.50      0.31
  TU29               505.00      0.50      0.31
  TU3                  0.00      0.00      0.00
  TU30                 0.00      0.00      0.00
  TU31                -0.00      0.00      0.00
  TU32                 0.00      0.00      0.00
  TU33                 0.00      0.00      0.00
  TU34                 0.00      0.00      0.00
  TU35                69.00      1.23      9.05
  TU36                69.00      0.79      3.09
  TU37                69.00      0.20      0.11
  TU38                69.00      0.20      0.11
  TU39                -0.00      0.00      0.00
  TU4                 81.00      0.11      0.03
  TU40                -0.00      0.00      0.00
  TU41                69.00      0.15      0.06
  TU42                 0.00      0.00      0.00
  TU43                69.00      0.10      0.02
  TU44                69.00      0.10      0.02
  TU45                69.00      0.10      0.02
  TU46                69.00      0.10      0.02
  TU47                -0.00      0.00      0.00
  TU48                 0.00      0.00      0.00
  TU49                 0.00      0.00      0.00
  TU5                 81.00      0.11      0.03
  TU50                 0.00      0.00      0.00
  TU52                 0.00      0.00      0.00
  TU53                 0.00      0.00      0.00
  TU54                 0.00      0.00      0.00
  TU55                 0.00      0.00      0.00
  TU56                 0.00      0.00      0.00
  TU57                 0.00      0.00      0.00
  TU58                 0.00      0.00      0.00
  TU59                 0.00      0.00      0.00
  TU6                 69.00      0.10      0.02
  TU61                 0.00      0.00      0.00
  TU62               150.00      0.80      1.99
  TU63                60.00      1.24     10.02
  TU65                 0.00      0.00      0.00
  TU66               210.00      0.69      1.17
  TU67               210.00      0.60      0.81
  TU68               210.00      0.60      0.81
  TU69               210.00      0.30      0.15
  TU7                  0.00      0.00      0.00
  TU70               210.00      0.30      0.15
  TU71               210.00      0.30      0.15
  TU72               295.00      0.65      0.82
  TU73               295.00      0.65      0.82
  TU74               295.00      0.65      0.82
  TU75               295.00      0.65      0.82
  TU76               295.00      0.65      0.82
  TU77               295.00      0.65      0.82
  TU78                63.00      1.30     10.95
  TU79               114.00      1.50     10.88
  TU8                 48.00      0.52      1.40
  TU80                 0.00      0.00      0.00
  TU81               114.00      0.96      3.68
  TU82                63.00      1.12      7.66
  TU83               122.00      1.60     12.33
  TU84                 0.00      0.00      0.00
  TU85                 0.00      0.00      0.00
  TU86                 0.00      0.00      0.00
  TU87                59.00      0.31      0.37
  TU88               181.00      0.40      0.34
  TU89                 0.00      0.00      0.00
  TU9                  0.00      0.00      0.00
  TU90                 0.00      0.00      0.00
  TU91                -0.00      0.00      0.00
  TU92               109.00      0.50      0.78
  TU93               109.00      0.31      0.25
  TU94                 0.00      0.00      0.00
  TU95               109.00      0.31      0.25
  TU96                 0.00      0.00      0.00
  TU97                 0.00      0.00      0.00
  TU98                 0.00      0.00      0.00
  TU99               109.00      0.24      0.13
  TU4000               0.00      0.00      0.00
  TU60                68.00      1.40     12.60
  TU64               210.00      1.12      3.68
  TU51                 0.00      0.00      0.00
  2                  210.00      4.33     36.00
  3                    0.00      0.00      0.00
   
  Analysis ended Fri Sep  8 13:06:44 2023
