  Page 1                                    Fri Sep  8 13:14:53 2023

  ******************************************************************
  *                           E P A N E T                          *
  *                   Hydraulic and Water Quality                  *
  *                   Analysis for Pipe Networks                   *
  *                         Version 2.2                            *
  ******************************************************************
  
  Analysis begun Fri Sep  8 13:14:53 2023

   
  Node Results:
  ----------------------------------------------
                     Demand      Head  Pressure
  Node                 m3/h         m         m
  ----------------------------------------------
  3661                 0.00    428.76     50.62
  482                  0.00    428.17     82.17
  661                  0.00    421.30     91.30
  6610                 0.00    424.76     64.76
  6611                 0.00    425.78     90.78
  6612                 0.00    425.81     63.44
  6613                 0.00    423.91     68.91
  6615                 0.00    422.91     83.91
  6616                 0.00    422.25     61.25
  6617                 0.00    422.56     79.56
  6618                 0.00    422.92     74.92
  662                  0.00    427.77     99.77
  6620                 0.00    420.59    112.59
  6621                 0.00    421.54     93.54
  6622                 0.00    421.75     84.75
  6623                 0.00    421.97     70.97
  6624                 0.00    422.04     70.04
  6625                 0.00    386.01     74.01
  6626                 0.00    422.01    101.01
  6627                 0.00    420.14     99.14
  6628                 0.00    423.69     84.69
  6629                 0.00    425.98     85.98
  663                  0.00    427.29     86.29
  6630                 0.00    426.26     86.46
  6632                 0.00    427.05     87.05
  6633                 0.00    428.52     65.88
  6634                 0.00    428.60     57.60
  6635                 0.00    428.47     76.47
  6636                 0.00    428.47     72.47
  6637                 0.00    428.37     61.37
  6639                 0.00    424.98     64.98
  664                  0.00    427.03     79.03
  6640                 0.00    424.86     64.86
  6641                 0.00    425.37     66.69
  6642                 0.00    425.29     69.29
  6643                 0.00    426.48     74.48
  6644                 0.00    426.68     74.68
  6645                 0.00    426.76     76.76
  6646                 0.00    426.38     79.36
  6648                 0.00    426.38     80.37
  6649                 0.00    426.53     87.53
  665                  0.00    426.87     81.87
  666                  0.00    426.55     86.55
  6665                 0.00    427.87     62.73
  6666                 0.00    428.15     60.49
  667                  0.00    426.66     74.66
  668                  0.00    421.30     91.30
  669                  0.00    425.74     80.74
  1                   74.00    428.11     98.11
  10                  65.00    426.10     74.10
  100                133.00    425.25     70.25
  100B                81.00    424.39     66.39
  101                126.00    423.45     70.45
  103                  0.00    423.49     84.49
  104                161.00    423.32     84.32
  105                 85.00    423.89     68.89
  106                  0.00    423.91     68.91
  107                 79.00    422.60     83.60
  108                  0.00    422.91     84.35
  109                  0.00    422.91     85.91
  11B                  0.00    426.80     83.80
  110                 70.00    422.90     76.90
  111                  0.00    422.85     84.07
  112                  0.00    422.88     80.88
  113                  0.00    422.77     99.77
  114                  0.00    422.64     74.64
  115                  0.00    422.60     76.60
  116                  0.00    422.63     77.62
  117                  0.00    422.56     79.56
  118                  0.00    422.23     83.23
  119                 41.00    419.34     96.53
  12                   0.00    426.44     96.10
  121                  0.00    422.66     73.86
  122                  0.00    422.63     74.72
  123                  0.00    422.63     76.62
  125                  0.00    422.65     71.65
  126                  0.00    422.22     74.22
  127                141.00    420.50     77.17
  128                 70.00    422.20     60.20
  129                  0.00    421.64     65.64
  130                132.00    421.36     80.28
  130B                74.00    421.50     68.50
  132                 60.00    419.48     86.48
  134                  0.00    420.14     99.14
  135                 58.00    418.07    102.07
  137                 57.00    414.35    105.35
  139                  0.00    421.30     61.30
  14                  91.00    425.79     87.79
  140                  0.00    421.30     70.30
  141                  0.00    421.30     69.30
  142                  0.00    421.30     60.30
  143                  0.00    419.48     78.51
  144                 88.00    421.91     62.91
  146                  0.00    422.01     76.01
  147                  0.00    422.01    101.01
  148                 61.00    422.01     89.01
  149                  0.00    386.01     72.80
  15                   0.00    425.78     90.78
  150                  0.00    386.01     77.94
  151                  0.00    386.01     80.77
  152                  0.00    386.01     75.99
  153                  0.00    386.01     76.01
  154                  0.00    421.44     96.44
  157                  0.00    420.59    117.59
  158A                80.00    407.13     86.13
  158B                80.00    407.10     86.10
  16B                  0.00    425.96     91.96
  160                  0.00    428.35     61.35
  162                  0.00    428.25     60.25
  163                 93.00    427.82     53.82
  164                 57.00    428.05     68.39
  165                  0.00    427.87     66.57
  166                 93.00    427.87     66.86
  167                  0.00    427.87     57.23
  169                  0.00    428.02     61.52
  17A                  0.00    425.65     90.65
  170                  0.00    428.42     69.42
  17B                176.00    425.52     90.52
  171                  0.00    428.47     76.47
  172                  0.00    428.47     88.47
  18B                  0.00    425.52    100.52
  19                   0.00    428.52     70.52
  2                    0.00    427.84    101.84
  20                   0.00    428.76     64.76
  2002                 0.00    425.74     75.74
  2003                 0.00    425.74     75.74
  21                   0.00    423.45     61.85
  22                  76.00    423.45     61.85
  222                 69.00    423.29     73.29
  24                   0.00    423.20     79.20
  25                   0.00    423.08     78.08
  26                   0.00    422.92     74.92
  27                   0.00    422.95     72.95
  28                   0.00    422.79     72.79
  29                   0.00    422.33     66.33
  3                    0.00    427.56     87.21
  30                   0.00    422.27     61.27
  3002                 0.00    428.76     42.76
  3004                 0.00    428.76     42.76
  3005                 0.00    428.76     42.76
  3008                 0.00    428.76     43.76
  3012                 0.00    428.76     58.03
  3013                 0.00    428.76     63.83
  3016               176.00    428.76     63.76
  3017               128.00    428.76     46.76
  3018                70.00    428.27     51.27
  3019                 0.00    428.76     59.37
  3020                 0.00    428.76     60.65
  3024                 0.00    428.76     63.82
  31                  52.00    422.10     64.31
  3152                 0.00    428.76     62.56
  32                   0.00    422.17     64.17
  34                  56.00    421.86     70.84
  35                   0.00    421.75     84.75
  36                   0.00    421.54     93.54
  39                   0.00    421.13    108.13
  41                   0.00    420.28    113.28
  46                 174.00    428.51     52.51
  47                   0.00    428.02     69.84
  48                   0.00    428.08     84.08
  49                   0.00    427.45     75.45
  5                    0.00    427.42     80.42
  52                  70.00    427.42     76.42
  53                   0.00    428.60     72.60
  54                   0.00    428.37     83.37
  55                   0.00    426.68     96.68
  56                  53.00    425.99     91.99
  58                 123.00    421.52     88.52
  59                 166.00    417.69     88.69
  6                    0.00    426.68     74.68
  60                  47.00    426.66     81.66
  61                   0.00    426.66     87.66
  62                   0.00    426.57     72.57
  64                  56.00    427.44     96.44
  65                  71.00    426.80     86.80
  66                  86.00    427.04     88.04
  67                 110.00    426.69     94.69
  68                   0.00    426.26     87.26
  69                  49.00    425.70     74.70
  7                    0.00    427.14     74.14
  70                 152.00    424.82     84.82
  71                  87.00    424.15     87.15
  72                   0.00    426.57     70.57
  73                   0.00    426.44     71.44
  77                 115.00    423.24     67.24
  78                   0.00    426.57     86.43
  79                  43.00    427.14     74.14
  8                   65.00    426.53     76.53
  80                   0.00    427.01     78.01
  81                  77.00    424.30     65.30
  82                   0.00    426.38     68.38
  85                  55.00    423.45     84.45
  86                   0.00    423.69     86.69
  87                 121.00    425.96     65.96
  88                  62.00    420.73     67.73
  89                  76.00    425.54     58.54
  90                   0.00    425.29     69.29
  91                 177.00    424.57     52.57
  92                  62.00    424.71     64.71
  91B                  0.00    424.76     64.76
  94                   0.00    426.53     87.53
  95                   0.00    425.76     82.76
  97                   0.00    425.25     94.25
  99                   0.00    425.54     75.54
  74                   0.00    426.39     67.68
  1074                 0.00    426.39     68.39
  11A                146.00    425.01     82.01
  1011                 0.00    425.25     82.25
  4                    0.00    422.01    110.01
  9                    0.00    420.59    110.59
  0                -3852.00    429.00      0.00  Reservoir
  balsa            -1344.00    423.45      0.00  Reservoir
   
   
  Link Results:
  ----------------------------------------------
                       Flow  Velocity  Headloss
  Link                 m3/h       m/s    /1000m
  ----------------------------------------------
  TU1                 62.00      0.68      2.28
  TU10                85.00      0.92      3.94
  TU100              453.00      1.00      1.79
  TU101              539.00      0.76      0.83
  TU102               71.00      1.26      9.53
  TU103              610.00      0.86      1.05
  TU104              666.00      0.94      1.23
  TU105             1862.00      0.81      0.47
  TU106             1862.00      0.81      0.47
  TU107                0.00      0.00      0.00
  TU108             1909.00      0.83      0.49
  TU109             2575.00      1.12      0.85
  TU11               211.00      0.97      2.58
  TU110             2575.00      1.12      0.85
  TU111              166.00      2.18     21.76
  TU112              289.00      2.11     14.42
  TU113              342.00      1.82      9.04
  TU114              342.00      1.82      9.04
  TU115             2991.00      1.06      0.67
  TU116             2991.00      1.06      0.67
  TU117               -0.00      0.00      0.00
  TU118                0.00      0.00      0.00
  TU119             2991.00      1.06      0.67
  TU12               161.00      1.84     14.56
  TU120             2991.00      1.06      0.67
  TU121                0.00      0.00      0.00
  TU122                0.00      0.00      0.00
  TU123               -0.00      0.00      0.00
  TU124               70.00      0.80      3.17
  TU125               70.00      0.51      1.08
  TU126               70.00      0.32      0.35
  TU127               70.00      0.32      0.35
  TU128                0.00      0.00      0.00
  TU129                0.00      0.00      0.00
  TU13               161.00      1.18      4.91
  TU130                0.00      0.00      0.00
  TU131               93.00      0.40      0.52
  TU132                0.00      0.00      0.00
  TU133               93.00      0.40      0.52
  TU134               -0.00      0.00      0.00
  TU135              243.00      0.54      0.57
  TU136              243.00      0.54      0.57
  TU137              313.00      0.44      0.31
  TU138              313.00      0.44      0.31
  TU139              313.00      0.31      0.13
  TU14               463.00      1.02      1.86
  TU140              557.00      0.55      0.37
  TU141                0.00      0.00      0.00
  TU142              115.00      0.31      0.24
  TU143              177.00      0.77      1.66
  TU144               81.00      0.87      3.61
  TU145               62.00      0.43      0.76
  TU146              143.00      0.62      1.13
  TU147              320.00      0.86      1.54
  TU148               -0.00      0.00      0.00
  TU149              133.00      0.92      3.03
  TU15                -0.00      0.00      0.00
  TU150              133.00      0.92      3.04
  TU151              453.00      0.64      0.61
  TU152                0.00      0.00      0.00
  TU15301            712.00      1.01      1.39
  TU15302            712.00      1.01      1.39
  TU1074               0.00      0.00      0.00
  TU154              712.00      0.70      0.57
  TU155               65.00      1.09      7.08
  TU156              777.00      0.76      0.67
  TU157              892.00      0.88      0.87
  TU158                0.00      0.00      0.00
  TU159              892.00      0.88      0.87
  TU16              3852.00      0.70      0.21
  TU160               65.00      1.16      8.11
  TU161              957.00      0.94      0.99
  TU162              905.00      0.65      0.42
  TU163              862.00      0.62      0.39
  TU164              905.00      0.65      0.42
  TU166               77.00      1.59     15.82
  TU167               -0.00      0.00      0.00
  TU168                0.00      0.00      0.00
  TU169               77.00      0.65      1.80
  TU17                -0.00      0.00      0.00
  TU170               77.00      0.35      0.41
  TU171              785.00      0.57      0.32
  TU17201            146.00      1.92     17.16
  TU17202              0.00      0.00      0.00
  TU1011A            146.00      1.92     17.16
  TU173              146.00      1.07      4.10
  TU174               -0.00      0.00      0.00
  TU175              146.00      0.67      1.32
  TU176              639.00      0.63      0.47
  TU177              639.00      0.63      0.47
  TU178              639.00      0.63      0.47
  TU179              176.00      0.50      0.58
  TU18                 0.00      0.00      0.00
  TU180              176.00      0.50      0.58
  TU181                0.00      0.00      0.00
  TU182              176.00      0.81      1.85
  TU183               47.00      0.54      1.54
  TU184                0.00      0.00      0.00
  TU185              182.00      0.40      0.34
  TU186              150.00      0.40      0.39
  TU187              243.00      0.54      0.57
  TU188             1120.00      0.81      0.62
  TU189             1120.00      0.81      0.62
  TU19                79.00      1.41     11.59
  TU190               -0.00      0.00      0.00
  TU191               -0.00      0.00      0.00
  TU192                0.00      0.00      0.00
  TU193                0.00      0.00      0.00
  TU194               -0.00      0.00      0.00
  TU195                0.00      0.00      0.00
  TU196                0.00      0.00      0.00
  TU197                0.00      0.00      0.00
  TU198                0.00      0.00      0.00
  TU199                0.00      0.00      0.00
  TU2                  0.00      0.00      0.00
  TU20                79.00      0.58      1.34
  TU200               -0.00      0.00      0.00
  TU201                0.00      0.00      0.00
  TU203               70.00      1.18      8.11
  TU204                0.00      0.00      0.00
  TU205              176.00      0.08      0.01
  TU21                -0.00      0.00      0.00
  TU22              1199.00      0.66      0.37
  TU23              1268.00      0.70      0.41
  TU24              1344.00      0.74      0.46
  TU25              1344.00      0.74      0.50
  TU26               868.00      0.85      0.83
  TU27               868.00      0.85      0.82
  TU28               868.00      0.85      0.82
  TU29               868.00      0.85      0.82
  TU3                 62.00      1.04      6.50
  TU30                41.00      0.84      5.01
  TU31                41.00      0.47      1.21
  TU32                 0.00      0.00      0.00
  TU33                41.00      0.19      0.13
  TU34                41.00      0.19      0.13
  TU35                -0.00      0.00      0.00
  TU36                 0.00      0.00      0.00
  TU37                41.00      0.12      0.04
  TU38                41.00      0.12      0.04
  TU39               141.00      1.61     11.40
  TU4                529.00      0.75      0.81
  TU40               141.00      1.03      3.85
  TU41               182.00      0.40      0.34
  TU42                93.00      0.64      1.58
  TU43               182.00      0.26      0.12
  TU44               182.00      0.26      0.12
  TU45               252.00      0.36      0.21
  TU46               252.00      0.36      0.21
  TU47                -0.00      0.00      0.00
  TU48               160.00      2.10     20.33
  TU49               160.00      1.35      6.84
  TU5                591.00      0.84      0.99
  TU50                 0.00      0.00      0.00
  TU52               160.00      0.53      0.71
  TU53               160.00      0.53      0.71
  TU54                 0.00      0.00      0.00
  TU55               160.00      0.53      0.71
  TU56                 0.00      0.00      0.00
  TU57               160.00      0.45      0.49
  TU58                56.00      1.00      6.18
  TU59               216.00      0.61      0.85
  TU6                182.00      0.26      0.12
  TU61                 0.00      0.00      0.00
  TU62                -0.00      0.00      0.00
  TU63                 0.00      0.00      0.00
  TU65                 0.00      0.00      0.00
  TU66                 0.00      0.00      0.00
  TU67                61.00      0.17      0.09
  TU68                61.00      0.17      0.09
  TU69               277.00      0.39      0.25
  TU7                115.00      1.93     20.17
  TU70               329.00      0.47      0.34
  TU71               329.00      0.47      0.34
  TU72               175.00      0.39      0.32
  TU73               307.00      0.68      0.88
  TU74               381.00      0.84      1.30
  TU75               381.00      0.84      1.30
  TU76               469.00      1.04      1.91
  TU77               539.00      1.19      2.47
  TU78                57.00      1.17      9.12
  TU79               115.00      1.51     11.06
  TU8                126.00      1.36      8.09
  TU80                 0.00      0.00      0.00
  TU81               115.00      0.97      3.74
  TU82                 0.00      0.00      0.00
  TU83                60.00      0.79      3.37
  TU84                 0.00      0.00      0.00
  TU85                 0.00      0.00      0.00
  TU86                 0.00      0.00      0.00
  TU87                 0.00      0.00      0.00
  TU88                60.00      0.13      0.05
  TU89                55.00      0.98      5.98
  TU9                  0.00      0.00      0.00
  TU90                 0.00      0.00      0.00
  TU91                55.00      0.63      2.05
  TU92               207.00      0.95      2.49
  TU93               207.00      0.59      0.78
  TU94                87.00      0.99      4.71
  TU95               294.00      0.83      1.49
  TU96                 0.00      0.00      0.00
  TU97                49.00      0.87      4.85
  TU98                49.00      0.56      1.66
  TU99               343.00      0.76      1.08
  TU4000              80.00      1.05      5.69
  TU60                -0.00      0.00      0.00
  TU64                 0.00      0.00      0.00
  TU51               160.00      0.85      2.24
  2                    0.00      0.00     36.00  PBV
  3                  160.00      3.30      0.00  PBV
   
  Analysis ended Fri Sep  8 13:14:53 2023
