  Page 1                                    Fri Sep  8 13:22:03 2023

  ******************************************************************
  *                           E P A N E T                          *
  *                   Hydraulic and Water Quality                  *
  *                   Analysis for Pipe Networks                   *
  *                         Version 2.2                            *
  ******************************************************************
  
  Analysis begun Fri Sep  8 13:22:03 2023

   
  Node Results:
  ----------------------------------------------
                     Demand      Head  Pressure
  Node                 m3/h         m         m
  ----------------------------------------------
  3661                 0.00    428.77     50.63
  482                  0.00    426.96     80.96
  661                  0.00    419.24     89.24
  6610                 0.00    426.83     66.83
  6611                 0.00    426.45     91.45
  6612                 0.00    426.85     64.48
  6613                 0.00    425.97     70.97
  6615                 0.00    420.09     81.09
  6616                 0.00    420.21     59.21
  6617                 0.00    417.33     74.33
  6618                 0.00    420.56     72.56
  662                  0.00    427.95     99.95
  6620                 0.00    419.87    111.87
  6621                 0.00    420.05     92.05
  6622                 0.00    420.09     83.09
  6623                 0.00    420.13     69.13
  6624                 0.00    420.14     68.14
  6625                 0.00    383.92     71.92
  6626                 0.00    420.04     99.04
  6627                 0.00    416.64     95.64
  6628                 0.00    424.94     85.94
  6629                 0.00    426.95     86.95
  663                  0.00    427.46     86.46
  6630                 0.00    426.90     87.10
  6632                 0.00    427.48     87.48
  6633                 0.00    428.58     65.94
  6634                 0.00    428.65     57.65
  6635                 0.00    428.17     76.17
  6636                 0.00    428.17     72.17
  6637                 0.00    427.89     60.89
  6639                 0.00    426.83     66.83
  664                  0.00    427.06     79.06
  6640                 0.00    426.83     66.83
  6641                 0.00    426.83     68.15
  6642                 0.00    426.83     70.83
  6643                 0.00    426.97     74.97
  6644                 0.00    427.09     75.09
  6645                 0.00    427.14     77.14
  6646                 0.00    422.89     75.87
  6648                 0.00    423.16     77.15
  6649                 0.00    426.32     87.32
  665                  0.00    426.91     81.91
  666                  0.00    427.19     87.19
  6665                 0.00    426.76     61.62
  6666                 0.00    427.51     59.85
  667                  0.00    427.08     75.08
  668                  0.00    419.23     89.23
  669                  0.00    426.75     81.75
  1                   70.00    428.26     98.26
  10                  56.00    426.69     74.69
  100                  0.00    426.83     71.83
  100B                 0.00    426.83     68.83
  101                 91.00    425.72     72.72
  103                 50.00    422.89     83.89
  104                152.00    422.73     83.73
  105                  0.00    425.97     70.97
  106                  0.00    425.97     70.97
  107                 74.00    419.81     80.81
  108                 66.00    419.05     80.49
  109                  0.00    419.85     82.85
  11B                141.00    426.85     83.85
  110                 63.00    420.50     74.50
  111                  0.00    420.28     81.50
  112                  0.00    420.39     78.39
  113                  0.00    419.98     96.98
  114                  0.00    419.09     71.09
  115                  0.00    418.22     72.22
  116                  0.00    418.68     73.68
  117                 82.00    417.22     74.22
  118                 68.00    413.98     74.98
  119                 77.00    404.85     82.04
  12                   0.00    426.68     96.34
  121                 50.00    419.52     70.72
  122                 64.00    415.11     67.21
  123                  0.00    418.18     72.18
  125                  0.00    419.48     68.48
  126                 52.00    419.41     71.41
  127                  0.00    419.41     76.08
  128                 64.00    420.18     58.18
  129                  0.00    419.77     63.77
  130                  0.00    419.46     78.38
  130B                 0.00    419.64     66.64
  132                 55.00    413.81     80.81
  134                 62.00    416.33     95.33
  135                 58.00    414.54     98.54
  137                 58.00    410.70    101.70
  139                 69.00    418.76     58.76
  14                   0.00    426.38     88.38
  140                  0.00    419.01     68.01
  141                  0.00    418.99     66.99
  142                  0.00    418.76     57.76
  143                 54.00    411.59     70.62
  144                  0.00    420.00     61.00
  146                  0.00    420.09     74.09
  147                  0.00    420.04     99.04
  148                  0.00    420.08     87.08
  149                  0.00    383.92     70.71
  15                   0.00    426.45     91.45
  150                  0.00    383.77     75.70
  151                  0.00    383.47     78.23
  152                 76.00    381.16     71.14
  153                  0.00    381.94     71.94
  154                  0.00    420.03     95.03
  157                 63.00    418.49    115.49
  158A                 0.00    419.87     98.87
  158B                 0.00    419.87     98.87
  16B                134.00    426.45     92.45
  160                 68.00    427.84     60.84
  162                  0.00    427.68     59.68
  163                 87.00    427.22     53.22
  164                  0.00    427.28     67.62
  165                 63.00    426.76     65.46
  166                 93.00    426.76     65.75
  167                  0.00    426.76     56.12
  169                 77.00    427.00     60.50
  17A                  0.00    426.45     91.45
  170                  0.00    428.04     69.04
  17B                  0.00    426.45     91.45
  171                  0.00    428.17     76.17
  172                  0.00    428.17     88.17
  18B                  0.00    426.45    101.45
  19                   0.00    428.58     70.58
  2                    0.00    428.02    102.02
  20                  88.00    428.77     64.77
  2002                 0.00    426.75     76.75
  2003                 0.00    426.75     76.75
  21                  61.00    421.22     59.62
  22                  75.00    421.21     59.61
  222                 68.00    421.02     71.02
  24                   0.00    420.92     76.92
  25                   0.00    420.78     75.78
  26                   0.00    420.56     72.56
  27                   0.00    420.65     70.65
  28                  58.00    420.53     70.53
  29                  49.00    420.25     64.25
  3                    0.00    427.74     87.39
  30                   0.00    420.22     59.22
  3002                 0.00    428.77     42.77
  3004                 0.00    428.77     42.77
  3005                 0.00    428.77     42.77
  3008                 0.00    428.77     43.77
  3012                 0.00    428.77     58.04
  3013                 0.00    428.77     63.84
  3016               137.00    428.77     63.77
  3017               133.00    428.77     46.77
  3018                69.00    428.06     51.06
  3019                 0.00    428.77     59.38
  3020                 0.00    428.77     60.66
  3024                 0.00    428.77     63.83
  31                  54.00    420.15     62.36
  3152                 0.00    428.77     62.57
  32                   0.00    420.18     62.18
  34                   0.00    420.13     69.11
  35                   0.00    420.09     83.09
  36                   0.00    420.05     92.05
  39                   0.00    419.97    106.97
  41                   0.00    419.87    112.87
  46                 173.00    428.30     52.30
  47                   0.00    427.15     68.97
  48                   0.00    426.57     82.57
  49                  76.00    423.61     71.61
  5                    0.00    427.59     80.59
  52                  87.00    423.57     72.57
  53                   0.00    428.65     72.65
  54                   0.00    428.47     83.47
  55                   0.00    428.08     98.08
  56                   0.00    427.99     93.99
  58                 111.00    427.22     94.22
  59                   0.00    427.22     98.22
  6                   58.00    426.90     74.90
  60                  45.00    426.91     81.91
  61                   0.00    426.91     87.91
  62                   0.00    427.02     73.02
  64                   0.00    427.75     96.75
  65                  85.00    427.12     87.12
  66                  81.00    427.47     88.47
  67                 103.00    427.27     95.27
  68                   0.00    426.90     87.90
  69                  50.00    426.31     75.31
  7                   58.00    427.22     74.22
  70                 133.00    426.00     86.00
  71                   0.00    426.95     89.95
  72                  94.00    427.02     71.02
  73                 168.00    426.95     71.95
  77                   0.00    427.02     71.02
  78                   0.00    427.02     86.88
  79                  49.00    427.22     74.22
  8                    0.00    427.14     77.14
  80                  90.00    426.84     77.84
  81                  74.00    421.22     62.22
  82                 129.00    422.12     64.12
  85                  53.00    424.72     85.72
  86                   0.00    424.94     87.94
  87                 117.00    426.87     66.87
  88                   0.00    426.85     73.85
  89                   0.00    426.83     59.83
  90                   0.00    426.83     70.83
  91                   0.00    426.83     54.83
  92                   0.00    426.83     66.83
  91B                  0.00    426.83     66.83
  94                  75.00    425.73     86.73
  95                   0.00    425.77     82.77
  97                   0.00    425.40     94.40
  99                 152.00    423.96     73.96
  74                  79.00    424.63     65.92
  1074                 0.00    426.94     68.94
  11A                122.00    425.22     82.22
  1011                 0.00    425.40     82.40
  4                    0.00    419.92    107.92
  9                    0.00    419.87    109.87
  0                -3771.00    429.00      0.00  Reservoir
  balsa            -1520.00    421.22     -0.00  Reservoir
   
   
  Link Results:
  ----------------------------------------------
                       Flow  Velocity  Headloss
  Link                 m3/h       m/s    /1000m
  ----------------------------------------------
  TU1                 -0.00      0.00      0.00
  TU10                 0.00      0.00      0.00
  TU100              339.00      0.75      1.05
  TU101              420.00      0.59      0.53
  TU102               85.00      1.51     13.25
  TU103              505.00      0.71      0.74
  TU104              505.00      0.71      0.74
  TU105             1889.00      0.82      0.48
  TU106             1889.00      0.82      0.48
  TU107                0.00      0.00      0.00
  TU108             1934.00      0.84      0.50
  TU109             2439.00      1.06      0.77
  TU11                91.00      0.42      0.56
  TU110             2439.00      1.06      0.77
  TU111                0.00      0.00      0.00
  TU112              111.00      0.81      2.49
  TU113              111.00      0.59      1.15
  TU114              111.00      0.59      1.15
  TU115             2620.00      0.93      0.53
  TU116             2620.00      0.93      0.53
  TU117               -0.00      0.00      0.00
  TU118                0.00      0.00      0.00
  TU119             2620.00      0.93      0.53
  TU12               152.00      1.74     13.09
  TU120             2620.00      0.93      0.53
  TU121                0.00      0.00      0.00
  TU122                0.00      0.00      0.00
  TU123               -0.00      0.00      0.00
  TU124               87.00      0.99      4.71
  TU125              163.00      1.19      5.02
  TU126              163.00      0.75      1.61
  TU127              163.00      0.75      1.61
  TU128                0.00      0.00      0.00
  TU129                0.00      0.00      0.00
  TU13               202.00      1.48      7.44
  TU130               63.00      0.27      0.25
  TU131              156.00      0.68      1.32
  TU132               77.00      0.34      0.37
  TU133              233.00      1.01      2.75
  TU134               -0.00      0.00      0.00
  TU135              320.00      0.71      0.95
  TU136              388.00      0.86      1.35
  TU137              551.00      0.78      0.87
  TU138              551.00      0.78      0.87
  TU139              551.00      0.54      0.36
  TU14               293.00      0.65      0.81
  TU140              793.00      0.78      0.70
  TU141                0.00      0.00      0.00
  TU142               94.00      0.25      0.17
  TU143               -0.00      0.00      0.00
  TU144               -0.00      0.00      0.00
  TU145               -0.00      0.00      0.00
  TU146               -0.00      0.00      0.00
  TU147               -0.00      0.00      0.00
  TU148               -0.00      0.00      0.00
  TU149               -0.00      0.00      0.00
  TU15                -0.00      0.00      0.00
  TU150               -0.00      0.00      0.00
  TU151               -0.00      0.00      0.00
  TU152              152.00      1.74     13.09
  TU15301            348.00      0.49      0.37
  TU15302            269.00      0.38      0.24
  TU1074              79.00      1.04      5.56
  TU154              516.00      0.51      0.32
  TU155               56.00      0.94      5.40
  TU156              572.00      0.56      0.38
  TU157              666.00      0.65      0.51
  TU158               58.00      1.03      6.59
  TU159              724.00      0.71      0.59
  TU16              3771.00      0.68      0.20
  TU160                0.00      0.00      0.00
  TU161              724.00      0.71      0.59
  TU162             1165.00      0.84      0.67
  TU163             1058.00      0.76      0.56
  TU164             1107.00      0.80      0.61
  TU166               74.00      1.53     14.71
  TU167              129.00      1.70     13.66
  TU168              129.00      1.70     13.66
  TU169              203.00      1.71     10.60
  TU17                66.00      1.17      8.34
  TU170              293.00      1.34      4.72
  TU171              765.00      0.55      0.31
  TU17201            122.00      1.60     12.33
  TU17202              0.00      0.00      0.00
  TU1011A            122.00      1.60     12.33
  TU173              122.00      0.89      2.95
  TU174               75.00      1.33     10.54
  TU175              197.00      0.90      2.28
  TU176              427.00      0.42      0.23
  TU177              568.00      0.56      0.38
  TU178              427.00      0.42      0.23
  TU179                0.00      0.00      0.00
  TU18                66.00      0.75      2.85
  TU180               -0.00      0.00      0.00
  TU181                0.00      0.00      0.00
  TU182                0.00      0.00      0.00
  TU183               45.00      0.51      1.42
  TU184                0.00      0.00      0.00
  TU185              393.00      0.87      1.38
  TU186              233.00      0.63      0.86
  TU187              320.00      0.71      0.95
  TU188             1176.00      0.85      0.68
  TU189             1176.00      0.85      0.68
  TU19                74.00      1.32     10.28
  TU190               76.00      1.00      5.18
  TU191                0.00      0.00      0.00
  TU192                0.00      0.00      0.00
  TU193                0.00      0.00      0.00
  TU194               -0.00      0.00      0.00
  TU195                0.00      0.00      0.00
  TU196                0.00      0.00      0.00
  TU197               -0.00      0.00      0.00
  TU198                0.00      0.00      0.00
  TU199                0.00      0.00      0.00
  TU2                  0.00      0.00      0.00
  TU20               140.00      1.02      3.80
  TU200               -0.00      0.00      0.00
  TU201                0.00      0.00      0.00
  TU203               69.00      1.16      7.90
  TU204               88.00      0.04      0.00
  TU205              225.00      0.10      0.01
  TU21                76.00      0.64      1.76
  TU22              1316.00      0.73      0.44
  TU23              1384.00      0.76      0.48
  TU24              1459.00      0.81      0.53
  TU25              1520.00      0.84      0.62
  TU26               613.00      0.60      0.44
  TU27               613.00      0.60      0.44
  TU28               662.00      0.65      0.50
  TU29               720.00      0.71      0.59
  TU3                  0.00      0.00      0.00
  TU30                77.00      1.59     15.82
  TU31               145.00      1.66     12.00
  TU32                82.00      0.94      4.23
  TU33               227.00      1.04      2.95
  TU34               227.00      1.04      2.95
  TU35                64.00      1.14      7.88
  TU36                64.00      0.73      2.69
  TU37               291.00      0.83      1.46
  TU38               291.00      0.83      1.46
  TU39                -0.00      0.00      0.00
  TU4                152.00      0.22      0.08
  TU40                52.00      0.38      0.63
  TU41               343.00      0.76      1.08
  TU42                87.00      0.60      1.40
  TU43               393.00      0.56      0.47
  TU44               393.00      0.56      0.47
  TU45               456.00      0.65      0.61
  TU46               456.00      0.65      0.61
  TU47                 0.00      0.00      0.00
  TU48                 0.00      0.00      0.00
  TU49                 0.00      0.00      0.00
  TU5                152.00      0.22      0.08
  TU50                63.00      1.30     10.95
  TU52                63.00      0.21      0.13
  TU53                63.00      0.21      0.13
  TU54                 0.00      0.00      0.00
  TU55                63.00      0.21      0.13
  TU56                 0.00      0.00      0.00
  TU57                63.00      0.18      0.09
  TU58                 0.00      0.00      0.00
  TU59                63.00      0.18      0.09
  TU6                393.00      0.56      0.47
  TU61                 0.00      0.00      0.00
  TU62                76.00      0.40      0.58
  TU63                 0.00      0.00      0.00
  TU65                 0.00      0.00      0.00
  TU66                76.00      0.25      0.19
  TU67                76.00      0.22      0.13
  TU68                76.00      0.22      0.13
  TU69               139.00      0.20      0.07
  TU7                  0.00      0.00      0.00
  TU70               193.00      0.27      0.13
  TU71               193.00      0.27      0.13
  TU72               356.00      0.79      1.15
  TU73               356.00      0.79      1.15
  TU74               356.00      0.79      1.15
  TU75               356.00      0.79      1.15
  TU76               356.00      0.79      1.15
  TU77               420.00      0.93      1.56
  TU78                58.00      1.20      9.42
  TU79               116.00      1.53     11.23
  TU8                 91.00      0.98      4.46
  TU80                62.00      1.28     10.64
  TU81               178.00      1.50      8.32
  TU82                54.00      0.96      5.79
  TU83               109.00      1.43     10.02
  TU84                 0.00      0.00      0.00
  TU85                69.00      0.50      1.05
  TU86                69.00      0.32      0.34
  TU87                69.00      0.37      0.49
  TU88               178.00      0.39      0.33
  TU89                53.00      0.94      5.59
  TU9                  0.00      0.00      0.00
  TU90                 0.00      0.00      0.00
  TU91                53.00      0.61      1.91
  TU92               186.00      0.85      2.05
  TU93               186.00      0.53      0.65
  TU94                 0.00      0.00      0.00
  TU95               186.00      0.53      0.65
  TU96                 0.00      0.00      0.00
  TU97                50.00      0.89      5.03
  TU98                50.00      0.57      1.72
  TU99               236.00      0.52      0.54
  TU4000               0.00      0.00      0.00
  TU60                76.00      1.57     15.45
  TU64                76.00      0.40      0.58
  TU51                63.00      0.33      0.41
  2                   76.00      1.57     36.00
  3                   63.00      1.30      0.00
   
  Analysis ended Fri Sep  8 13:22:03 2023
