  Page 1                                    Fri Sep  8 13:11:35 2023

  ******************************************************************
  *                           E P A N E T                          *
  *                   Hydraulic and Water Quality                  *
  *                   Analysis for Pipe Networks                   *
  *                         Version 2.2                            *
  ******************************************************************
  
  Analysis begun Fri Sep  8 13:11:35 2023

   
  Node Results:
  ----------------------------------------------
                     Demand      Head  Pressure
  Node                 m3/h         m         m
  ----------------------------------------------
  3661                 0.00    428.98     50.84
  482                  0.00    428.97     82.97
  661                  0.00    426.75     96.75
  6610                 0.00    426.33     66.33
  6611                 0.00    428.76     93.76
  6612                 0.00    428.03     65.66
  6613                 0.00    428.31     73.31
  6615                 0.00    427.33     88.33
  6616                 0.00    427.01     66.01
  6617                 0.00    427.27     84.27
  6618                 0.00    427.27     79.27
  662                  0.00    428.90    100.90
  6620                 0.00    426.92    118.92
  6621                 0.00    426.92     98.92
  6622                 0.00    426.92     89.92
  6623                 0.00    426.92     75.92
  6624                 0.00    426.93     74.93
  6625                 0.00    390.75     78.75
  6626                 0.00    426.75    105.75
  6627                 0.00    426.75    105.75
  6628                 0.00    428.90     89.90
  6629                 0.00    428.90     88.90
  663                  0.00    428.81     87.81
  6630                 0.00    428.90     89.10
  6632                 0.00    428.90     88.90
  6633                 0.00    428.96     66.32
  6634                 0.00    428.97     57.97
  6635                 0.00    428.98     76.98
  6636                 0.00    428.98     72.98
  6637                 0.00    428.97     61.97
  6639                 0.00    427.59     67.59
  664                  0.00    428.79     80.79
  6640                 0.00    427.34     67.34
  6641                 0.00    427.78     69.10
  6642                 0.00    427.78     71.78
  6643                 0.00    428.46     76.46
  6644                 0.00    428.57     76.57
  6645                 0.00    428.61     78.61
  6646                 0.00    428.77     81.75
  6648                 0.00    428.77     82.76
  6649                 0.00    428.79     89.79
  665                  0.00    428.79     83.79
  666                  0.00    428.90     88.90
  6665                 0.00    428.94     63.80
  6666                 0.00    428.96     61.30
  667                  0.00    428.56     76.56
  668                  0.00    426.75     96.75
  669                  0.00    428.90     83.90
  1                    0.00    428.93     98.93
  10                   0.00    428.46     76.46
  100                  0.00    427.78     72.78
  100B                 0.00    427.34     69.34
  101                 95.00    428.04     75.04
  103                  0.00    428.75     89.75
  104                  0.00    428.75     89.75
  105                  0.00    428.31     73.31
  106                  0.00    428.31     73.31
  107                  0.00    427.33     88.33
  108                  0.00    427.33     88.77
  109                  0.00    427.33     90.33
  11B                  0.00    428.79     85.79
  110                  0.00    427.27     81.27
  111                  0.00    427.27     88.49
  112                  0.00    427.27     85.27
  113                  0.00    427.27    104.27
  114                  0.00    427.27     79.27
  115                  0.00    427.27     81.27
  116                  0.00    427.27     82.27
  117                  0.00    427.27     84.27
  118                  0.00    427.27     88.27
  119                  0.00    427.27    104.46
  12                   0.00    428.78     98.44
  121                  0.00    427.27     78.47
  122                  0.00    427.27     79.37
  123                  0.00    427.27     81.27
  125                  0.00    427.27     76.27
  126                  0.00    427.27     79.27
  127                  0.00    427.27     83.94
  128                  0.00    427.00     65.00
  129                  0.00    426.81     70.81
  130                119.00    426.75     85.67
  130B                69.00    426.77     73.77
  132                  0.00    426.75     93.75
  134                  0.00    426.75    105.75
  135                  0.00    426.75    110.75
  137                  0.00    426.75    117.75
  139                  0.00    426.75     66.75
  14                   0.00    428.75     90.75
  140                  0.00    426.75     75.75
  141                  0.00    426.75     74.75
  142                  0.00    426.75     65.75
  143                  0.00    426.75     85.78
  144                 84.00    426.89     67.89
  146                  0.00    426.80     80.80
  147                 63.00    426.47    105.47
  148                 67.00    426.78     93.78
  149                  0.00    390.75     77.54
  15                   0.00    428.76     93.76
  150                  0.00    390.75     82.68
  151                  0.00    390.75     85.51
  152                  0.00    390.75     80.73
  153                  0.00    390.75     80.75
  154                  0.00    426.92    101.92
  157                  0.00    426.92    123.92
  158A                 0.00    426.92    105.92
  158B                 0.00    426.92    105.92
  16B                  0.00    428.76     94.76
  160                  0.00    428.97     61.97
  162                  0.00    428.96     60.96
  163                  0.00    428.96     54.96
  164                 53.00    428.94     69.28
  165                  0.00    428.94     67.64
  166                  0.00    428.94     67.93
  167                  0.00    428.94     58.30
  169                  0.00    428.94     62.44
  17A                  0.00    428.76     93.76
  170                  0.00    428.97     69.97
  17B                  0.00    428.76     93.76
  171                  0.00    428.98     76.98
  172                  0.00    428.98     88.98
  18B                  0.00    428.76    103.76
  19                   0.00    428.96     70.96
  2                    0.00    428.90    102.90
  20                   0.00    428.98     64.98
  2002                 0.00    428.90     78.90
  2003                 0.00    428.90     78.90
  21                   0.00    427.38     65.78
  22                   0.00    427.38     65.78
  222                  0.00    427.35     77.35
  24                   0.00    427.33     83.33
  25                   0.00    427.30     82.30
  26                   0.00    427.27     79.27
  27                   0.00    427.27     77.27
  28                   0.00    427.21     77.21
  29                  56.00    427.03     71.03
  3                    0.00    428.86     88.51
  30                   0.00    427.01     66.01
  3002                 0.00    428.98     42.98
  3004                 0.00    428.98     42.98
  3005                 0.00    428.98     42.98
  3008                 0.00    428.98     43.98
  3012                 0.00    428.98     58.25
  3013                 0.00    428.98     64.05
  3016                 0.00    428.98     63.98
  3017               150.00    428.98     46.98
  3018                 0.00    428.98     51.98
  3019                 0.00    428.98     59.59
  3020                 0.00    428.98     60.87
  3024                 0.00    428.98     64.04
  31                   0.00    426.96     69.17
  3152                 0.00    428.98     62.78
  32                   0.00    426.98     68.98
  34                  56.00    426.81     75.79
  35                   0.00    426.92     89.92
  36                   0.00    426.92     98.92
  39                   0.00    426.92    113.92
  41                   0.00    426.92    119.92
  46                   0.00    428.98     52.98
  47                   0.00    428.94     70.76
  48                   0.00    428.97     84.97
  49                   0.00    428.97     76.97
  5                    0.00    428.83     81.83
  52                   0.00    428.97     77.97
  53                   0.00    428.97     72.97
  54                   0.00    428.95     83.95
  55                   0.00    428.93     98.93
  56                   0.00    428.93     94.93
  58                   0.00    428.93     95.93
  59                   0.00    428.93     99.93
  6                    0.00    428.57     76.57
  60                   0.00    428.86     83.86
  61                   0.00    428.86     89.86
  62                   0.00    428.56     74.56
  64                   0.00    428.90     97.90
  65                   0.00    428.90     88.90
  66                   0.00    428.90     89.90
  67                   0.00    428.90     96.90
  68                   0.00    428.90     89.90
  69                   0.00    428.90     77.90
  7                    0.00    428.80     75.80
  70                   0.00    428.90     88.90
  71                   0.00    428.90     91.90
  72                   0.00    428.56     72.56
  73                   0.00    428.43     73.43
  77                   0.00    428.56     72.56
  78                   0.00    428.56     88.42
  79                   0.00    428.80     75.80
  8                    0.00    428.61     78.61
  80                  80.00    428.77     79.77
  81                   0.00    428.77     69.77
  82                   0.00    428.77     70.77
  85                   0.00    428.90     89.90
  86                   0.00    428.90     91.90
  87                 119.00    428.12     68.12
  88                   0.00    428.03     75.03
  89                  85.00    427.83     60.83
  90                   0.00    427.78     71.78
  91                   0.00    427.59     55.59
  92                   0.00    426.33     66.33
  91B                217.00    425.84     65.84
  94                   0.00    428.79     89.79
  95                   0.00    428.79     85.79
  97                   0.00    428.79     97.79
  99                 147.00    425.13     75.13
  74                   0.00    428.40     69.69
  1074                 0.00    428.40     70.40
  11A                  0.00    428.79     85.79
  1011                 0.00    428.79     85.79
  4                    0.00    426.75    114.75
  9                    0.00    426.92    116.92
  0                 -946.00    429.00      0.00  Reservoir
  balsa             -514.00    427.38      0.00  Reservoir
   
   
  Link Results:
  ----------------------------------------------
                       Flow  Velocity  Headloss
  Link                 m3/h       m/s    /1000m
  ----------------------------------------------
  TU1                 -0.00      0.00      0.00
  TU10                 0.00      0.00      0.00
  TU100                0.00      0.00      0.00
  TU101                0.00      0.00      0.00
  TU102                0.00      0.00      0.00
  TU103                0.00      0.00      0.00
  TU104                0.00      0.00      0.00
  TU105              743.00      0.32      0.09
  TU106              743.00      0.32      0.09
  TU107                0.00      0.00      0.00
  TU108              743.00      0.32      0.09
  TU109              743.00      0.32      0.09
  TU11                95.00      0.43      0.61
  TU110              743.00      0.32      0.09
  TU111                0.00      0.00      0.00
  TU112               -0.00      0.00      0.00
  TU113                0.00      0.00      0.00
  TU114                0.00      0.00      0.00
  TU115              743.00      0.26      0.05
  TU116              743.00      0.26      0.05
  TU117               -0.00      0.00      0.00
  TU118                0.00      0.00      0.00
  TU119              743.00      0.26      0.05
  TU12                 0.00      0.00      0.00
  TU120              743.00      0.26      0.05
  TU121                0.00      0.00      0.00
  TU122                0.00      0.00      0.00
  TU123               -0.00      0.00      0.00
  TU124                0.00      0.00      0.00
  TU125               -0.00      0.00      0.00
  TU126               -0.00      0.00      0.00
  TU127               -0.00      0.00      0.00
  TU128                0.00      0.00      0.00
  TU129                0.00      0.00      0.00
  TU13                 0.00      0.00      0.00
  TU130                0.00      0.00      0.00
  TU131               -0.00      0.00      0.00
  TU132                0.00      0.00      0.00
  TU133               -0.00      0.00      0.00
  TU134              217.00      2.34     22.05
  TU135               53.00      0.12      0.04
  TU136               53.00      0.12      0.04
  TU137               53.00      0.07      0.01
  TU138               53.00      0.07      0.01
  TU139               53.00      0.05      0.01
  TU14                95.00      0.21      0.11
  TU140               53.00      0.05      0.01
  TU141                0.00      0.00      0.00
  TU142                0.00      0.00      0.00
  TU143               -0.00      0.00      0.00
  TU144               -0.00      0.00      0.00
  TU145              217.00      1.50      7.45
  TU146              217.00      0.94      2.41
  TU147              217.00      0.59      0.76
  TU148               -0.00      0.00      0.00
  TU149               -0.00      0.00      0.00
  TU15                -0.00      0.00      0.00
  TU150               -0.00      0.00      0.00
  TU151              217.00      0.31      0.16
  TU152              147.00      1.68     12.31
  TU15301            568.00      0.80      0.92
  TU15302            568.00      0.80      0.92
  TU1074               0.00      0.00      0.00
  TU154              568.00      0.56      0.38
  TU155                0.00      0.00      0.00
  TU156              568.00      0.56      0.38
  TU157              568.00      0.56      0.38
  TU158                0.00      0.00      0.00
  TU159              568.00      0.56      0.38
  TU16               946.00      0.17      0.02
  TU160                0.00      0.00      0.00
  TU161              568.00      0.56      0.38
  TU162              175.00      0.13      0.02
  TU163              175.00      0.13      0.02
  TU164              175.00      0.13      0.02
  TU166               -0.00      0.00      0.00
  TU167               -0.00      0.00      0.00
  TU168                0.00      0.00      0.00
  TU169                0.00      0.00      0.00
  TU17                -0.00      0.00      0.00
  TU170               80.00      0.37      0.44
  TU171               95.00      0.07      0.01
  TU17201             -0.00      0.00      0.00
  TU17202              0.00      0.00      0.00
  TU1011A             -0.00      0.00      0.00
  TU173               -0.00      0.00      0.00
  TU174               -0.00      0.00      0.00
  TU175               -0.00      0.00      0.00
  TU176               95.00      0.09      0.02
  TU177               95.00      0.09      0.01
  TU178               95.00      0.09      0.02
  TU179                0.00      0.00      0.00
  TU18                 0.00      0.00      0.00
  TU180                0.00      0.00      0.00
  TU181                0.00      0.00      0.00
  TU182                0.00      0.00      0.00
  TU183                0.00      0.00      0.00
  TU184                0.00      0.00      0.00
  TU185               -0.00      0.00      0.00
  TU186               53.00      0.14      0.06
  TU187               53.00      0.12      0.04
  TU188              514.00      0.37      0.15
  TU189              514.00      0.37      0.15
  TU19                 0.00      0.00      0.00
  TU190               -0.00      0.00      0.00
  TU191               -0.00      0.00      0.00
  TU192                0.00      0.00      0.00
  TU193                0.00      0.00      0.00
  TU194               -0.00      0.00      0.00
  TU195                0.00      0.00      0.00
  TU196                0.00      0.00      0.00
  TU197               -0.00      0.00      0.00
  TU198                0.00      0.00      0.00
  TU199                0.00      0.00      0.00
  TU2                  0.00      0.00      0.00
  TU20                -0.00      0.00      0.00
  TU200               -0.00      0.00      0.00
  TU201                0.00      0.00      0.00
  TU203                0.00      0.00      0.00
  TU204                0.00      0.00      0.00
  TU205                0.00      0.00      0.00
  TU21                -0.00      0.00      0.00
  TU22               514.00      0.28      0.08
  TU23               514.00      0.28      0.08
  TU24               514.00      0.28      0.08
  TU25               514.00      0.28      0.12
  TU26               458.00      0.45      0.26
  TU27               458.00      0.45      0.26
  TU28               514.00      0.50      0.32
  TU29               514.00      0.50      0.32
  TU3                  0.00      0.00      0.00
  TU30                 0.00      0.00      0.00
  TU31                -0.00      0.00      0.00
  TU32                 0.00      0.00      0.00
  TU33                 0.00      0.00      0.00
  TU34                 0.00      0.00      0.00
  TU35                -0.00      0.00      0.00
  TU36                 0.00      0.00      0.00
  TU37                 0.00      0.00      0.00
  TU38                 0.00      0.00      0.00
  TU39                -0.00      0.00      0.00
  TU4                449.00      0.64      0.60
  TU40                 0.00      0.00      0.00
  TU41                -0.00      0.00      0.00
  TU42                 0.00      0.00      0.00
  TU43                -0.00      0.00      0.00
  TU44                -0.00      0.00      0.00
  TU45                -0.00      0.00      0.00
  TU46                -0.00      0.00      0.00
  TU47                -0.00      0.00      0.00
  TU48                 0.00      0.00      0.00
  TU49                 0.00      0.00      0.00
  TU5                449.00      0.64      0.60
  TU50                 0.00      0.00      0.00
  TU52                 0.00      0.00      0.00
  TU53                 0.00      0.00      0.00
  TU54                 0.00      0.00      0.00
  TU55                 0.00      0.00      0.00
  TU56                 0.00      0.00      0.00
  TU57                 0.00      0.00      0.00
  TU58                56.00      1.00      6.18
  TU59                56.00      0.16      0.07
  TU6                 -0.00      0.00      0.00
  TU61                 0.00      0.00      0.00
  TU62                -0.00      0.00      0.00
  TU63                 0.00      0.00      0.00
  TU65                63.00      1.30     10.95
  TU66                63.00      0.21      0.13
  TU67               130.00      0.37      0.34
  TU68               130.00      0.37      0.34
  TU69               186.00      0.26      0.12
  TU7                  0.00      0.00      0.00
  TU70               186.00      0.26      0.12
  TU71               186.00      0.26      0.12
  TU72                 0.00      0.00      0.00
  TU73               119.00      0.26      0.16
  TU74               188.00      0.42      0.36
  TU75               188.00      0.42      0.36
  TU76               272.00      0.60      0.70
  TU77               272.00      0.60      0.70
  TU78                 0.00      0.00      0.00
  TU79                 0.00      0.00      0.00
  TU8                 95.00      1.03      4.82
  TU80                 0.00      0.00      0.00
  TU81                 0.00      0.00      0.00
  TU82                 0.00      0.00      0.00
  TU83                 0.00      0.00      0.00
  TU84                 0.00      0.00      0.00
  TU85                 0.00      0.00      0.00
  TU86                 0.00      0.00      0.00
  TU87                 0.00      0.00      0.00
  TU88                 0.00      0.00      0.00
  TU89                 0.00      0.00      0.00
  TU9                  0.00      0.00      0.00
  TU90                 0.00      0.00      0.00
  TU91                -0.00      0.00      0.00
  TU92                 0.00      0.00      0.00
  TU93                 0.00      0.00      0.00
  TU94                 0.00      0.00      0.00
  TU95                 0.00      0.00      0.00
  TU96                 0.00      0.00      0.00
  TU97                 0.00      0.00      0.00
  TU98                 0.00      0.00      0.00
  TU99                 0.00      0.00      0.00
  TU4000               0.00      0.00      0.00
  TU60                -0.00      0.00      0.00
  TU64                 0.00      0.00      0.00
  TU51                 0.00      0.00      0.00
  2                   -0.00      0.00     36.00  PBV
  3                    0.00      0.00      0.00  PBV
   
  Analysis ended Fri Sep  8 13:11:35 2023
