  Page 1                                    Fri Sep  8 13:13:26 2023

  ******************************************************************
  *                           E P A N E T                          *
  *                   Hydraulic and Water Quality                  *
  *                   Analysis for Pipe Networks                   *
  *                         Version 2.2                            *
  ******************************************************************
  
  Analysis begun Fri Sep  8 13:13:26 2023

   
  Node Results:
  ----------------------------------------------
                     Demand      Head  Pressure
  Node                 m3/h         m         m
  ----------------------------------------------
  3661                 0.00    428.76     50.62
  482                  0.00    428.36     82.36
  661                  0.00    422.85     92.85
  6610                 0.00    424.56     64.56
  6611                 0.00    422.56     87.56
  6612                 0.00    425.46     63.09
  6613                 0.00    420.88     65.88
  6615                 0.00    422.91     83.91
  6616                 0.00    423.14     62.14
  6617                 0.00    421.63     78.63
  6618                 0.00    423.29     75.29
  662                  0.00    427.58     99.58
  6620                 0.00    422.01    114.01
  6621                 0.00    422.67     94.67
  6622                 0.00    422.82     85.82
  6623                 0.00    422.98     71.98
  6624                 0.00    423.01     71.01
  6625                 0.00    386.58     74.58
  6626                 0.00    422.82    101.82
  6627                 0.00    422.47    101.47
  6628                 0.00    425.84     86.84
  6629                 0.00    427.11     87.11
  663                  0.00    426.71     85.71
  6630                 0.00    427.36     87.56
  6632                 0.00    427.47     87.47
  6633                 0.00    428.47     65.83
  6634                 0.00    428.56     57.56
  6635                 0.00    428.49     76.49
  6636                 0.00    428.49     72.49
  6637                 0.00    428.36     61.36
  6639                 0.00    424.77     64.77
  664                  0.00    425.92     77.92
  6640                 0.00    424.66     64.66
  6641                 0.00    425.17     66.49
  6642                 0.00    425.17     69.17
  6643                 0.00    425.86     73.86
  6644                 0.00    426.04     74.04
  6645                 0.00    426.13     76.13
  6646                 0.00    423.05     76.03
  6648                 0.00    423.22     77.21
  6649                 0.00    423.60     84.60
  665                  0.00    425.45     80.45
  666                  0.00    427.36     87.36
  6665                 0.00    427.38     62.24
  6666                 0.00    428.01     60.35
  667                  0.00    426.02     74.02
  668                  0.00    422.85     92.85
  669                  0.00    427.09     82.09
  1                   72.00    428.00     98.00
  10                  60.00    425.53     73.53
  100                  0.00    425.17     70.17
  100B                77.00    424.23     66.23
  101                121.00    420.45     67.45
  103                 41.00    419.54     80.54
  104                169.00    419.35     80.35
  105                 67.00    420.87     65.87
  106                 53.00    420.81     65.81
  107                 60.00    422.72     83.72
  108                 60.00    422.03     83.47
  109                  0.00    422.71     85.71
  11B                114.00    425.27     82.27
  110                 67.00    423.22     77.22
  111                 57.00    423.03     84.25
  112                  0.00    423.13     81.13
  113                  0.00    422.82     99.82
  114                 51.00    422.17     74.17
  115                 58.00    421.77     75.77
  116                  0.00    421.95     76.95
  117                  0.00    421.63     78.63
  118                 81.00    420.48     81.48
  119                  0.00    420.48     97.67
  12                   0.00    424.50     94.16
  121                 61.00    422.51     73.71
  122                 67.00    418.07     70.17
  123                  0.00    421.41     75.41
  125                  0.00    422.48     71.48
  126                  0.00    422.48     74.48
  127                  0.00    422.48     79.15
  128                  0.00    423.13     61.13
  129                  0.00    423.01     67.01
  130                  0.00    422.92     81.84
  130B                 0.00    422.97     69.97
  132                 59.00    416.38     83.38
  134                 62.00    422.17    101.17
  135                  0.00    422.47    106.47
  137                  0.00    422.47    113.47
  139                  0.00    422.85     62.85
  14                  76.00    423.29     85.29
  140                  0.00    422.85     71.85
  141                  0.00    422.85     70.85
  142                  0.00    422.85     61.85
  143                 61.00    413.61     72.64
  144                  0.00    423.08     64.08
  146                  0.00    422.91     76.91
  147                  0.00    422.82    101.82
  148                  0.00    422.90     89.90
  149                  0.00    386.58     73.37
  15                 210.00    421.96     86.96
  150                 69.00    386.29     78.22
  151                  0.00    386.19     80.95
  152                 42.00    385.40     75.38
  153                  0.00    385.67     75.67
  154                  0.00    422.60     97.60
  157                  0.00    422.01    119.01
  158A                66.00    412.57     91.57
  158B                66.00    412.55     91.55
  16B                  0.00    423.49     89.49
  160                  0.00    428.33     61.33
  162                  0.00    428.18     60.18
  163                 97.00    427.66     53.66
  164                  0.00    427.82     68.16
  165                 58.00    427.38     66.08
  166                 83.00    427.38     66.37
  167                  0.00    427.38     56.74
  169                 73.00    427.57     61.07
  17A                  0.00    422.37     87.37
  170                102.00    428.41     69.41
  17B                  0.00    422.17     87.17
  171                  0.00    428.49     76.49
  172                  0.00    428.49     88.49
  18B                221.00    416.35     91.35
  19                   0.00    428.47     70.47
  2                    0.00    427.67    101.67
  20                   0.00    428.76     64.76
  2002                 0.00    427.09     77.09
  2003                 0.00    427.09     77.09
  21                  61.00    423.73     62.13
  22                  76.00    423.72     62.12
  222                 71.00    423.60     73.60
  24                   0.00    423.53     79.53
  25                   0.00    423.45     78.45
  26                   0.00    423.29     75.29
  27                   0.00    423.36     73.36
  28                   0.00    423.31     73.31
  29                  46.00    423.16     67.16
  3                    0.00    427.21     86.86
  30                   0.00    423.14     62.14
  3002                 0.00    428.76     42.76
  3004                 0.00    428.76     42.76
  3005                 0.00    428.76     42.76
  3008                 0.00    428.76     43.76
  3012                 0.00    428.76     58.03
  3013                 0.00    428.76     63.83
  3016                56.00    428.76     63.76
  3017                 0.00    428.76     46.76
  3018                74.00    428.30     51.30
  3019                 0.00    428.76     59.37
  3020                 0.00    428.76     60.65
  3024                 0.00    428.76     63.82
  31                   0.00    423.05     65.26
  3152                 0.00    428.76     62.56
  32                   0.00    423.09     65.09
  34                   0.00    422.98     71.96
  35                   0.00    422.82     85.82
  36                   0.00    422.67     94.67
  39                   0.00    422.38    109.38
  41                   0.00    421.79    114.79
  46                   0.00    428.57     52.57
  47                   0.00    427.71     69.53
  48                   0.00    428.36     84.36
  49                   0.00    428.36     76.36
  5                    0.00    426.95     79.95
  52                   0.00    428.36     77.36
  53                 115.00    426.47     70.47
  54                   0.00    428.30     83.30
  55                   0.00    427.00     97.00
  56                   0.00    426.51     92.51
  58                 117.00    422.24     89.24
  59                 165.00    418.45     89.45
  6                    0.00    426.04     74.04
  60                   0.00    427.21     82.21
  61                   0.00    427.21     88.21
  62                 112.00    421.08     67.08
  64                  76.00    427.52     96.52
  65                   0.00    427.47     87.47
  66                   0.00    427.47     88.47
  67                   0.00    427.40     95.40
  68                   0.00    427.36     88.36
  69                   0.00    427.36     76.36
  7                    0.00    426.27     73.27
  70                   0.00    427.01     87.01
  71                 128.00    423.41     86.41
  72                   0.00    425.69     69.69
  73                 164.00    425.82     70.82
  77                 118.00    422.20     66.20
  78                   0.00    425.69     85.55
  79                   0.00    426.27     73.27
  8                   50.00    425.98     75.98
  80                   0.00    425.84     76.84
  81                  69.00    421.51     62.51
  82                 100.00    422.57     64.57
  85                  56.00    425.59     86.59
  86                   0.00    425.84     88.84
  87                   0.00    425.57     65.57
  88                  59.00    420.82     67.82
  89                  61.00    425.27     58.27
  90                   0.00    425.17     69.17
  91                 190.00    424.30     52.30
  92                  61.00    424.51     64.51
  91B                  0.00    424.56     64.56
  94                  72.00    423.05     84.05
  95                   0.00    420.81     77.81
  97                 145.00    412.11     81.11
  99                  51.00    424.88     74.88
  74                   0.00    425.80     67.09
  1074                 0.00    425.80     67.80
  11A                149.00    418.67     75.67
  1011                 0.00    418.92     75.92
  4                    0.00    422.58    110.58
  9                    0.00    422.01    112.01
  0                -3882.00    429.00      0.00  Reservoir
  balsa            -1241.00    423.73     -0.00  Reservoir
   
   
  Link Results:
  ----------------------------------------------
                       Flow  Velocity  Headloss
  Link                 m3/h       m/s    /1000m
  ----------------------------------------------
  TU1                 61.00      0.67      2.21
  TU10                67.00      0.72      2.55
  TU100              184.00      0.41      0.35
  TU101              184.00      0.26      0.12
  TU102                0.00      0.00      0.00
  TU103              184.00      0.26      0.12
  TU104              260.00      0.37      0.22
  TU105             2610.00      1.14      0.87
  TU106             2610.00      1.14      0.87
  TU107                0.00      0.00      0.00
  TU108             2610.00      1.14      0.87
  TU109             2870.00      1.25      1.04
  TU11               241.00      1.10      3.30
  TU110             2870.00      1.25      1.04
  TU111              165.00      2.17     21.52
  TU112              282.00      2.06     13.78
  TU113              282.00      1.50      6.33
  TU114              282.00      1.50      6.33
  TU115             3224.00      1.14      0.77
  TU116             3224.00      1.14      0.77
  TU117              115.00      1.24      6.84
  TU118                0.00      0.00      0.00
  TU119             3224.00      1.14      0.77
  TU12               169.00      1.93     15.92
  TU120             3339.00      1.18      0.82
  TU121                0.00      0.00      0.00
  TU122                0.00      0.00      0.00
  TU123               -0.00      0.00      0.00
  TU124                0.00      0.00      0.00
  TU125               -0.00      0.00      0.00
  TU126               -0.00      0.00      0.00
  TU127               -0.00      0.00      0.00
  TU128                0.00      0.00      0.00
  TU129                0.00      0.00      0.00
  TU13               210.00      1.53      7.99
  TU130               58.00      0.25      0.22
  TU131              141.00      0.61      1.10
  TU132               73.00      0.32      0.33
  TU133              214.00      0.93      2.35
  TU134               -0.00      0.00      0.00
  TU135              311.00      0.69      0.90
  TU136              311.00      0.69      0.90
  TU137              311.00      0.44      0.31
  TU138              413.00      0.58      0.51
  TU139              413.00      0.41      0.21
  TU14               527.00      1.16      2.36
  TU140              487.00      0.48      0.29
  TU141              112.00      1.88     19.21
  TU142              230.00      0.62      0.84
  TU143              190.00      0.83      1.89
  TU144               77.00      0.83      3.29
  TU145               61.00      0.42      0.74
  TU146              138.00      0.60      1.06
  TU147              328.00      0.89      1.61
  TU148               -0.00      0.00      0.00
  TU149               -0.00      0.00      0.00
  TU15                -0.00      0.00      0.00
  TU150               -0.00      0.00      0.00
  TU151              328.00      0.46      0.34
  TU152               51.00      0.58      1.79
  TU15301            499.00      0.71      0.72
  TU15302            499.00      0.71      0.72
  TU1074               0.00      0.00      0.00
  TU154              663.00      0.65      0.50
  TU155               60.00      1.01      6.12
  TU156              723.00      0.71      0.59
  TU157              953.00      0.94      0.98
  TU158                0.00      0.00      0.00
  TU159              953.00      0.94      0.98
  TU16              3882.00      0.70      0.21
  TU160               50.00      0.89      5.03
  TU161             1003.00      0.99      1.08
  TU162             1607.00      1.16      1.21
  TU163             1607.00      1.16      1.21
  TU164             1607.00      1.16      1.22
  TU166               69.00      1.42     12.94
  TU167              100.00      1.31      8.55
  TU168              100.00      1.31      8.56
  TU169              169.00      1.42      7.56
  TU17                60.00      1.07      7.01
  TU170              169.00      0.77      1.72
  TU171             1438.00      1.04      0.99
  TU17201            294.00      3.87     63.15
  TU17202            145.00      1.91     16.95
  TU1011A            149.00      1.96     17.82
  TU173              294.00      2.15     14.89
  TU174               72.00      1.28      9.78
  TU175              366.00      1.67      7.11
  TU176              958.00      0.94      0.99
  TU177             1072.00      1.05      1.22
  TU178              958.00      0.94      0.99
  TU179              431.00      1.22      3.00
  TU18                60.00      0.69      2.40
  TU180              221.00      0.63      0.88
  TU181              221.00      1.86     12.40
  TU182              221.00      1.01      2.81
  TU183                0.00      0.00      0.00
  TU184                0.00      0.00      0.00
  TU185              318.00      0.70      0.94
  TU186              214.00      0.58      0.74
  TU187              311.00      0.69      0.90
  TU188              913.00      0.66      0.43
  TU189              913.00      0.66      0.43
  TU19                60.00      1.07      7.01
  TU190               42.00      0.55      1.77
  TU191               -0.00      0.00      0.00
  TU192                0.00      0.00      0.00
  TU193                0.00      0.00      0.00
  TU194               -0.00      0.00      0.00
  TU195                0.00      0.00      0.00
  TU196                0.00      0.00      0.00
  TU197               -0.00      0.00      0.00
  TU198                0.00      0.00      0.00
  TU199                0.00      0.00      0.00
  TU2                210.00      2.40     23.81
  TU20               120.00      0.88      2.87
  TU200               -0.00      0.00      0.00
  TU201                0.00      0.00      0.00
  TU203               74.00      1.24      8.97
  TU204                0.00      0.00      0.00
  TU205               56.00      0.02      0.00
  TU21                42.00      0.35      0.60
  TU22              1033.00      0.57      0.28
  TU23              1104.00      0.61      0.32
  TU24              1180.00      0.65      0.36
  TU25              1241.00      0.69      0.37
  TU26               425.00      0.42      0.22
  TU27               425.00      0.42      0.22
  TU28               471.00      0.46      0.27
  TU29               471.00      0.46      0.27
  TU3                 59.00      0.99      5.94
  TU30                 0.00      0.00      0.00
  TU31                81.00      0.92      4.13
  TU32                 0.00      0.00      0.00
  TU33                81.00      0.37      0.45
  TU34               139.00      0.64      1.21
  TU35                67.00      1.19      8.57
  TU36                67.00      0.76      2.93
  TU37               206.00      0.58      0.78
  TU38               257.00      0.73      1.16
  TU39                -0.00      0.00      0.00
  TU4                440.00      0.62      0.58
  TU40                 0.00      0.00      0.00
  TU41               257.00      0.57      0.64
  TU42                97.00      0.67      1.71
  TU43               375.00      0.53      0.43
  TU44               375.00      0.53      0.43
  TU45               442.00      0.63      0.58
  TU46               442.00      0.63      0.58
  TU47                -0.00      0.00      0.00
  TU48               132.00      1.74     14.25
  TU49               132.00      1.11      4.81
  TU5                499.00      0.71      0.72
  TU50                 0.00      0.00      0.00
  TU52               132.00      0.44      0.50
  TU53               132.00      0.44      0.50
  TU54                 0.00      0.00      0.00
  TU55               132.00      0.44      0.50
  TU56                 0.00      0.00      0.00
  TU57               132.00      0.37      0.35
  TU58                 0.00      0.00      0.00
  TU59               132.00      0.37      0.35
  TU6                318.00      0.45      0.32
  TU61                 0.00      0.00      0.00
  TU62               111.00      0.59      1.15
  TU63                 0.00      0.00      0.00
  TU65                 0.00      0.00      0.00
  TU66               111.00      0.37      0.37
  TU67               111.00      0.32      0.25
  TU68               111.00      0.32      0.25
  TU69               243.00      0.34      0.20
  TU7                118.00      1.98     21.15
  TU70               243.00      0.34      0.20
  TU71               243.00      0.34      0.20
  TU72               182.00      0.40      0.34
  TU73               182.00      0.40      0.34
  TU74               182.00      0.40      0.34
  TU75               182.00      0.40      0.34
  TU76               182.00      0.40      0.34
  TU77               182.00      0.40      0.34
  TU78                 0.00      0.00      0.00
  TU79                 0.00      0.00      0.00
  TU8                121.00      1.31      7.51
  TU80                62.00      1.28     10.64
  TU81                62.00      0.52      1.22
  TU82                61.00      1.09      7.22
  TU83               120.00      1.58     11.96
  TU84                 0.00      0.00      0.00
  TU85                 0.00      0.00      0.00
  TU86                 0.00      0.00      0.00
  TU87                 0.00      0.00      0.00
  TU88               120.00      0.27      0.16
  TU89                56.00      1.00      6.18
  TU9                 53.00      0.89      4.88
  TU90                 0.00      0.00      0.00
  TU91                56.00      0.64      2.11
  TU92                56.00      0.26      0.23
  TU93                56.00      0.16      0.07
  TU94               128.00      1.46      9.54
  TU95               184.00      0.52      0.63
  TU96                 0.00      0.00      0.00
  TU97                 0.00      0.00      0.00
  TU98                 0.00      0.00      0.00
  TU99               184.00      0.41      0.35
  TU4000              66.00      0.87      4.01
  TU60                42.00      0.87      5.23
  TU64               111.00      0.59      1.15
  TU51               132.00      0.70      1.58
  2                  111.00      2.29     36.00
  3                  132.00      2.72      0.00
   
  Analysis ended Fri Sep  8 13:13:26 2023
