  Page 1                                    Fri Sep  8 13:20:42 2023

  ******************************************************************
  *                           E P A N E T                          *
  *                   Hydraulic and Water Quality                  *
  *                   Analysis for Pipe Networks                   *
  *                         Version 2.2                            *
  ******************************************************************
  
  Analysis begun Fri Sep  8 13:20:42 2023

   
  Node Results:
  ----------------------------------------------
                     Demand      Head  Pressure
  Node                 m3/h         m         m
  ----------------------------------------------
  3661                 0.00    428.79     50.65
  482                  0.00    427.29     81.29
  661                  0.00    425.48     95.48
  6610                 0.00    423.85     63.85
  6611                 0.00    424.93     89.93
  6612                 0.00    425.69     63.32
  6613                 0.00    425.51     70.51
  6615                 0.00    426.09     87.09
  6616                 0.00    425.76     64.76
  6617                 0.00    425.40     82.40
  6618                 0.00    426.05     78.05
  662                  0.00    427.79     99.79
  6620                 0.00    424.25    116.25
  6621                 0.00    425.16     97.16
  6622                 0.00    425.36     88.36
  6623                 0.00    425.57     74.57
  6624                 0.00    425.61     73.61
  6625                 0.00    389.44     77.44
  6626                 0.00    425.54    104.54
  6627                 0.00    425.10    104.10
  6628                 0.00    423.57     84.57
  6629                 0.00    426.11     86.11
  663                  0.00    427.19     86.19
  6630                 0.00    426.32     86.52
  6632                 0.00    427.24     87.24
  6633                 0.00    428.56     65.92
  6634                 0.00    428.64     57.64
  6635                 0.00    428.45     76.45
  6636                 0.00    428.45     72.45
  6637                 0.00    428.28     61.28
  6639                 0.00    425.11     65.11
  664                  0.00    426.86     78.86
  6640                 0.00    424.74     64.74
  6641                 0.00    425.38     66.70
  6642                 0.00    425.38     69.38
  6643                 0.00    426.22     74.22
  6644                 0.00    426.47     74.47
  6645                 0.00    426.57     76.57
  6646                 0.00    423.94     76.92
  6648                 0.00    424.09     78.08
  6649                 0.00    426.32     87.32
  665                  0.00    426.70     81.70
  666                  0.00    426.70     86.70
  6665                 0.00    427.70     62.56
  6666                 0.00    428.13     60.47
  667                  0.00    426.44     74.44
  668                  0.00    425.47     95.47
  669                  0.00    425.82     80.82
  1                   73.00    428.19     98.19
  10                   0.00    426.22     74.22
  100                  0.00    425.38     70.38
  100B                64.00    424.44     66.44
  101                 97.00    425.22     72.22
  103                  0.00    425.96     86.96
  104                  0.00    425.96     86.96
  105                  0.00    425.51     70.51
  106                  0.00    425.51     70.51
  107                  0.00    426.09     87.09
  108                 61.00    425.18     86.62
  109                  0.00    425.88     88.88
  11B                 92.00    426.62     83.62
  110                 76.00    426.02     80.02
  111                 56.00    425.92     87.14
  112                  0.00    425.97     83.97
  113                  0.00    425.84    102.84
  114                 55.00    425.61     77.61
  115                  0.00    425.52     79.52
  116                  0.00    425.57     80.57
  117                 73.00    425.31     82.31
  118                  0.00    425.40     86.40
  119                  0.00    425.40    102.59
  12                   0.00    426.34     96.00
  121                  0.00    425.71     76.91
  122                  0.00    425.57     77.67
  123                  0.00    425.57     79.57
  125                  0.00    425.70     74.70
  126                 67.00    425.59     77.59
  127                  0.00    425.59     82.26
  128                 66.00    425.75     63.75
  129                  0.00    425.63     69.63
  130                  0.00    425.54     84.46
  130B                 0.00    425.59     72.59
  132                 57.00    423.81     90.81
  134                  0.00    425.10    104.10
  135                 62.00    424.43    108.43
  137                  0.00    424.43    115.43
  139                 61.00    425.10     65.10
  14                   0.00    425.96     87.96
  140                  0.00    425.30     74.30
  141                  0.00    425.29     73.29
  142                  0.00    425.10     64.10
  143                  0.00    423.81     82.84
  144                  0.00    425.70     66.70
  146                  0.00    425.57     79.57
  147                  0.00    425.54    104.54
  148                  0.00    425.57     92.57
  149                  0.00    389.44     76.23
  15                   0.00    424.93     89.93
  150                 66.00    389.33     81.26
  151                  0.00    389.33     84.09
  152                  0.00    389.33     79.31
  153                  0.00    389.33     79.33
  154                  0.00    425.06    100.06
  157                  0.00    424.25    121.25
  158A                78.00    411.41     90.41
  158B                78.00    411.38     90.38
  16B                  0.00    425.97     91.97
  160                 61.00    428.26     61.26
  162                  0.00    428.20     60.20
  163                 54.00    428.01     54.01
  164                  0.00    428.05     68.39
  165                 60.00    427.70     66.40
  166                 75.00    427.70     66.69
  167                  0.00    427.70     57.06
  169                  0.00    428.00     61.50
  17A                245.00    424.21     89.21
  170                  0.00    428.38     69.38
  17B                  0.00    424.03     89.03
  171                  0.00    428.45     76.45
  172                  0.00    428.45     88.45
  18B                212.00    418.63     93.63
  19                   0.00    428.56     70.56
  2                    0.00    427.88    101.88
  20                  81.00    428.79     64.79
  2002                 0.00    425.82     75.82
  2003                 0.00    425.82     75.82
  21                  64.00    426.45     64.85
  22                   0.00    426.44     64.84
  222                 64.00    426.33     76.33
  24                   0.00    426.27     82.27
  25                   0.00    426.19     81.19
  26                   0.00    426.05     78.05
  27                   0.00    426.10     76.10
  28                   0.00    426.02     76.02
  29                  59.00    425.79     69.79
  3                   66.00    427.52     87.17
  30                   0.00    425.77     64.77
  3002                 0.00    428.79     42.79
  3004                 0.00    428.79     42.79
  3005                 0.00    428.79     42.79
  3008                 0.00    428.79     43.79
  3012                 0.00    428.79     58.06
  3013                 0.00    428.79     63.86
  3016                 0.00    428.79     63.79
  3017               148.00    428.79     46.79
  3018                66.00    428.31     51.31
  3019                 0.00    428.79     59.40
  3020                 0.00    428.79     60.68
  3024                 0.00    428.79     63.85
  31                  61.00    425.65     67.86
  3152                 0.00    428.79     62.59
  32                   0.00    425.70     67.70
  34                   0.00    425.57     74.55
  35                   0.00    425.36     88.36
  36                   0.00    425.16     97.16
  39                   0.00    424.76    111.76
  41                   0.00    423.96    116.96
  46                  79.00    428.53     52.53
  47                   0.00    428.00     69.82
  48                   0.00    426.88     82.88
  49                  88.00    423.71     71.71
  5                    0.00    427.35     80.35
  52                  81.00    423.68     72.68
  53                   0.00    428.64     72.64
  54                   0.00    428.43     83.43
  55                   0.00    428.19     98.19
  56                   0.00    428.19     94.19
  58                   0.00    428.19     95.19
  59                   0.00    428.19     99.19
  6                    0.00    426.47     74.47
  60                   0.00    425.22     80.22
  61                  79.00    424.12     85.12
  62                 117.00    421.17     67.17
  64                   0.00    427.56     96.56
  65                  90.00    426.84     86.84
  66                   0.00    427.23     88.23
  67                 106.00    426.86     94.86
  68                   0.00    426.32     87.32
  69                  58.00    425.55     74.55
  7                    0.00    427.00     74.00
  70                 176.00    424.70     84.70
  71                  69.00    424.91     87.91
  72                  90.00    426.17     70.17
  73                 178.00    426.17     71.17
  77                   0.00    426.17     70.17
  78                   0.00    426.17     86.03
  79                  65.00    426.99     73.99
  8                    0.00    426.57     76.57
  80                   0.00    426.78     77.78
  81                  76.00    422.06     63.06
  82                  95.00    423.50     65.50
  85                  55.00    423.33     84.33
  86                   0.00    423.57     86.57
  87                   0.00    425.84     65.84
  88                  81.00    417.41     64.41
  89                  83.00    425.45     58.45
  90                   0.00    425.38     69.38
  91                   0.00    425.11     53.11
  92                   0.00    423.85     63.85
  91B                203.00    423.42     63.42
  94                   0.00    426.32     87.32
  95                   0.00    425.49     82.49
  97                   0.00    424.93     93.93
  99                 149.00    422.69     72.69
  74                  79.00    423.83     65.12
  1074                 0.00    426.13     68.13
  11A                153.00    424.66     81.66
  1011                 0.00    424.93     81.93
  4                    0.00    425.44    113.44
  9                    0.00    424.25    114.25
  0                -3644.00    429.00      0.00  Reservoir
  balsa            -1104.00    426.45     -0.00  Reservoir
   
   
  Link Results:
  ----------------------------------------------
                       Flow  Velocity  Headloss
  Link                 m3/h       m/s    /1000m
  ----------------------------------------------
  TU1                 -0.00      0.00      0.00
  TU10                 0.00      0.00      0.00
  TU100              464.00      1.03      1.87
  TU101              464.00      0.66      0.64
  TU102               90.00      1.60     14.72
  TU103              554.00      0.78      0.88
  TU104              554.00      0.78      0.88
  TU105             2079.00      0.91      0.57
  TU106             2079.00      0.91      0.57
  TU107                0.00      0.00      0.00
  TU108             2224.00      0.97      0.65
  TU109             2778.00      1.21      0.98
  TU11                97.00      0.44      0.63
  TU110             2778.00      1.21      0.98
  TU111                0.00      0.00      0.00
  TU112               -0.00      0.00      0.00
  TU113                0.00      0.00      0.00
  TU114                0.00      0.00      0.00
  TU115             2851.00      1.01      0.62
  TU116             2851.00      1.01      0.62
  TU117               -0.00      0.00      0.00
  TU118                0.00      0.00      0.00
  TU119             2851.00      1.01      0.62
  TU12                 0.00      0.00      0.00
  TU120             2851.00      1.01      0.62
  TU121                0.00      0.00      0.00
  TU122                0.00      0.00      0.00
  TU123               -0.00      0.00      0.00
  TU124               81.00      0.92      4.13
  TU125              169.00      1.23      5.36
  TU126              169.00      0.77      1.72
  TU127              169.00      0.77      1.72
  TU128                0.00      0.00      0.00
  TU129                0.00      0.00      0.00
  TU13                 0.00      0.00      0.00
  TU130               60.00      0.26      0.24
  TU131              135.00      0.59      1.02
  TU132                0.00      0.00      0.00
  TU133              135.00      0.59      1.01
  TU134              203.00      2.19     19.49
  TU135              189.00      0.42      0.36
  TU136              250.00      0.55      0.60
  TU137              419.00      0.59      0.53
  TU138              419.00      0.59      0.53
  TU139              419.00      0.41      0.22
  TU14                97.00      0.21      0.11
  TU140              564.00      0.55      0.37
  TU141              117.00      1.97     20.82
  TU142              207.00      0.56      0.69
  TU143               -0.00      0.00      0.00
  TU144               64.00      0.69      2.35
  TU145              203.00      1.41      6.59
  TU146              267.00      1.16      3.52
  TU147              267.00      0.72      1.10
  TU148                0.00      0.00      0.00
  TU149               -0.00      0.00      0.00
  TU15                -0.00      0.00      0.00
  TU150               -0.00      0.00      0.00
  TU151              267.00      0.38      0.23
  TU152              149.00      1.70     12.62
  TU15301            659.00      0.93      1.21
  TU15302            580.00      0.82      0.95
  TU1074              79.00      1.04      5.56
  TU154              837.00      0.82      0.77
  TU155                0.00      0.00      0.00
  TU156              837.00      0.82      0.77
  TU157             1044.00      1.03      1.16
  TU158                0.00      0.00      0.00
  TU159             1044.00      1.03      1.16
  TU16              3644.00      0.66      0.19
  TU160                0.00      0.00      0.00
  TU161             1044.00      1.03      1.16
  TU162             1035.00      0.75      0.54
  TU163              970.00      0.70      0.48
  TU164             1035.00      0.75      0.54
  TU166               76.00      1.57     15.45
  TU167               95.00      1.25      7.79
  TU168               95.00      1.25      7.79
  TU169              171.00      1.44      7.73
  TU17                61.00      1.09      7.22
  TU170              171.00      0.78      1.76
  TU171              799.00      0.58      0.34
  TU17201            153.00      2.01     18.71
  TU17202              0.00      0.00      0.00
  TU1011A            153.00      2.01     18.71
  TU173              153.00      1.12      4.47
  TU174               -0.00      0.00      0.00
  TU175              153.00      0.70      1.44
  TU176              554.00      0.54      0.36
  TU177              646.00      0.63      0.48
  TU178              554.00      0.54      0.36
  TU179              457.00      1.30      3.34
  TU18                61.00      0.70      2.47
  TU180              457.00      1.30      3.34
  TU181              212.00      1.78     11.48
  TU182              212.00      0.97      2.61
  TU183               79.00      0.90      3.95
  TU184                0.00      0.00      0.00
  TU185              195.00      0.43      0.38
  TU186              135.00      0.36      0.32
  TU187              189.00      0.42      0.36
  TU188              915.00      0.66      0.43
  TU189              915.00      0.66      0.43
  TU19                -0.00      0.00      0.00
  TU190               -0.00      0.00      0.00
  TU191               79.00      1.41     11.59
  TU192                0.00      0.00      0.00
  TU193                0.00      0.00      0.00
  TU194               -0.00      0.00      0.00
  TU195                0.00      0.00      0.00
  TU196                0.00      0.00      0.00
  TU197                0.00      0.00      0.00
  TU198                0.00      0.00      0.00
  TU199                0.00      0.00      0.00
  TU2                  0.00      0.00      0.00
  TU20                61.00      0.45      0.84
  TU200               -0.00      0.00      0.00
  TU201                0.00      0.00      0.00
  TU203               66.00      1.11      7.28
  TU204               81.00      0.04      0.00
  TU205               81.00      0.04      0.00
  TU21                -0.00      0.00      0.00
  TU22               976.00      0.54      0.25
  TU23              1040.00      0.57      0.28
  TU24              1040.00      0.57      0.29
  TU25              1104.00      0.61      0.25
  TU26               529.00      0.52      0.33
  TU27               529.00      0.52      0.33
  TU28               588.00      0.58      0.40
  TU29               588.00      0.58      0.40
  TU3                 81.00      1.36     10.59
  TU30                 0.00      0.00      0.00
  TU31                -0.00      0.00      0.00
  TU32                73.00      0.83      3.42
  TU33                73.00      0.33      0.38
  TU34                73.00      0.33      0.38
  TU35                -0.00      0.00      0.00
  TU36                 0.00      0.00      0.00
  TU37                73.00      0.21      0.12
  TU38               128.00      0.36      0.33
  TU39                -0.00      0.00      0.00
  TU4                499.00      0.71      0.72
  TU40                67.00      0.49      1.00
  TU41               195.00      0.43      0.38
  TU42                54.00      0.37      0.59
  TU43               251.00      0.36      0.21
  TU44               251.00      0.36      0.21
  TU45               327.00      0.46      0.34
  TU46               327.00      0.46      0.33
  TU47                -0.00      0.00      0.00
  TU48               156.00      2.05     19.40
  TU49               156.00      1.31      6.53
  TU5                580.00      0.82      0.95
  TU50                 0.00      0.00      0.00
  TU52               156.00      0.52      0.68
  TU53               156.00      0.52      0.68
  TU54                 0.00      0.00      0.00
  TU55               156.00      0.52      0.68
  TU56                 0.00      0.00      0.00
  TU57               156.00      0.44      0.47
  TU58                 0.00      0.00      0.00
  TU59               156.00      0.44      0.47
  TU6                195.00      0.28      0.13
  TU61                 0.00      0.00      0.00
  TU62                66.00      0.35      0.45
  TU63                 0.00      0.00      0.00
  TU65                 0.00      0.00      0.00
  TU66                66.00      0.22      0.14
  TU67                66.00      0.19      0.10
  TU68                66.00      0.19      0.10
  TU69               222.00      0.31      0.17
  TU7                  0.00      0.00      0.00
  TU70               283.00      0.40      0.26
  TU71               283.00      0.40      0.26
  TU72               180.00      0.40      0.33
  TU73               180.00      0.40      0.33
  TU74               180.00      0.40      0.33
  TU75               180.00      0.40      0.33
  TU76               180.00      0.40      0.33
  TU77               246.00      0.54      0.59
  TU78                 0.00      0.00      0.00
  TU79                62.00      0.82      3.58
  TU8                 97.00      1.05      5.01
  TU80                 0.00      0.00      0.00
  TU81                62.00      0.52      1.22
  TU82                 0.00      0.00      0.00
  TU83                57.00      0.75      3.07
  TU84                 0.00      0.00      0.00
  TU85                61.00      0.45      0.84
  TU86                61.00      0.28      0.27
  TU87                61.00      0.32      0.39
  TU88               118.00      0.26      0.15
  TU89                55.00      0.98      5.98
  TU9                  0.00      0.00      0.00
  TU90                 0.00      0.00      0.00
  TU91                55.00      0.63      2.05
  TU92               231.00      1.06      3.05
  TU93               231.00      0.66      0.96
  TU94                69.00      0.79      3.09
  TU95               300.00      0.85      1.54
  TU96                 0.00      0.00      0.00
  TU97                58.00      1.03      6.59
  TU98                58.00      0.66      2.25
  TU99               358.00      0.79      1.16
  TU4000              78.00      1.03      5.43
  TU60                -0.00      0.00      0.00
  TU64                66.00      0.35      0.45
  TU51               156.00      0.83      2.14
  2                   66.00      1.36     36.00
  3                  156.00      3.22      0.00
   
  Analysis ended Fri Sep  8 13:20:42 2023
