  Page 1                                    Fri Sep  8 13:22:05 2023

  ******************************************************************
  *                           E P A N E T                          *
  *                   Hydraulic and Water Quality                  *
  *                   Analysis for Pipe Networks                   *
  *                         Version 2.2                            *
  ******************************************************************
  
  Analysis begun Fri Sep  8 13:22:05 2023

   
  Node Results:
  ----------------------------------------------
                     Demand      Head  Pressure
  Node                 m3/h         m         m
  ----------------------------------------------
  3661                 0.00    428.81     50.67
  482                  0.00    426.94     80.94
  661                  0.00    419.97     89.97
  6610                 0.00    425.89     65.89
  6611                 0.00    426.33     91.33
  6612                 0.00    426.42     64.05
  6613                 0.00    424.83     69.83
  6615                 0.00    420.94     81.94
  6616                 0.00    421.01     60.01
  6617                 0.00    416.65     73.65
  6618                 0.00    421.25     73.25
  662                  0.00    427.98     99.98
  6620                 0.00    420.97    112.97
  6621                 0.00    420.97     92.97
  6622                 0.00    420.97     83.97
  6623                 0.00    420.97     69.97
  6624                 0.00    420.97     68.97
  6625                 0.00    384.78     72.78
  6626                 0.00    420.89     99.89
  6627                 0.00    417.41     96.41
  6628                 0.00    426.24     87.24
  6629                 0.00    427.02     87.02
  663                  0.00    427.46     86.46
  6630                 0.00    426.85     87.05
  6632                 0.00    427.51     87.51
  6633                 0.00    428.62     65.98
  6634                 0.00    428.68     57.68
  6635                 0.00    428.24     76.24
  6636                 0.00    428.24     72.24
  6637                 0.00    427.98     60.98
  6639                 0.00    426.23     66.23
  664                  0.00    427.09     79.09
  6640                 0.00    426.17     66.17
  6641                 0.00    426.29     67.61
  6642                 0.00    426.29     70.29
  6643                 0.00    426.71     74.71
  6644                 0.00    426.90     74.90
  6645                 0.00    426.97     76.97
  6646                 0.00    423.90     76.88
  6648                 0.00    424.08     78.07
  6649                 0.00    426.69     87.69
  665                  0.00    426.95     81.95
  666                  0.00    427.23     87.23
  6665                 0.00    426.98     61.84
  6666                 0.00    427.66     60.00
  667                  0.00    426.89     74.89
  668                  0.00    419.96     89.96
  669                  0.00    426.86     81.86
  1                   87.00    428.31     98.31
  10                  62.00    426.36     74.36
  100                  0.00    426.29     71.29
  100B                 0.00    426.17     68.17
  101                 98.00    424.54     71.54
  103                 46.00    424.89     85.89
  104                 73.00    424.85     85.85
  105                 80.00    424.81     69.81
  106                  0.00    424.83     69.83
  107                 74.00    420.66     81.66
  108                 56.00    420.16     81.60
  109                  0.00    420.76     83.76
  11B                138.00    426.87     83.87
  110                 66.00    421.16     75.16
  111                  0.00    420.83     82.05
  112                  0.00    421.00     79.00
  113                  0.00    420.38     97.38
  114                  0.00    419.01     71.01
  115                 64.00    417.62     71.62
  116                  0.00    418.40     73.40
  117                 80.00    416.55     73.55
  118                 81.00    412.73     73.73
  119                 77.00    403.60     80.79
  12                   0.00    426.64     96.30
  121                 64.00    419.67     70.87
  122                 63.00    414.93     67.03
  123                  0.00    417.91     71.91
  125                  0.00    419.61     68.61
  126                 65.00    419.51     71.51
  127                  0.00    419.51     76.18
  128                 66.00    420.97     58.97
  129                  0.00    420.54     64.54
  130                  0.00    420.21     79.13
  130B                 0.00    420.40     67.40
  132                 57.00    413.29     80.29
  134                 62.00    417.10     96.10
  135                 52.00    415.34     99.34
  137                 63.00    410.87    101.87
  139                 69.00    419.49     59.49
  14                  89.00    426.21     88.21
  140                  0.00    419.75     68.75
  141                  0.00    419.73     67.73
  142                  0.00    419.49     58.49
  143                 65.00    410.19     69.22
  144                  0.00    420.78     61.78
  146                  0.00    420.93     74.93
  147                  0.00    420.89     99.89
  148                  0.00    420.93     87.93
  149                  0.00    384.78     71.57
  15                   0.00    426.33     91.33
  150                  0.00    384.65     76.58
  151                  0.00    384.39     79.15
  152                 71.00    382.34     72.32
  153                  0.00    383.04     73.04
  154                  0.00    420.97     95.97
  157                  0.00    420.97    117.97
  158A                 0.00    420.97     99.97
  158B                 0.00    420.97     99.97
  16B                117.00    426.33     92.33
  160                 58.00    427.95     60.95
  162                  0.00    427.81     59.81
  163                 79.00    427.42     53.42
  164                  0.00    427.46     67.80
  165                 60.00    426.98     65.68
  166                 90.00    426.99     65.98
  167                  0.00    426.98     56.34
  169                 65.00    427.24     60.74
  17A                  0.00    426.33     91.33
  170                  0.00    428.12     69.12
  17B                  0.00    426.33     91.33
  171                  0.00    428.24     76.24
  172                  0.00    428.24     88.24
  18B                  0.00    426.33    101.33
  19                   0.00    428.62     70.62
  2                    0.00    428.05    102.05
  20                  88.00    428.81     64.81
  2002                 0.00    426.86     76.86
  2003                 0.00    426.86     76.86
  21                  60.00    421.97     60.37
  22                   0.00    421.96     60.36
  222                 71.00    421.77     71.77
  24                   0.00    421.66     77.66
  25                   0.00    421.52     76.52
  26                   0.00    421.25     73.25
  27                   0.00    421.37     71.37
  28                  51.00    421.28     71.28
  29                  42.00    421.04     65.04
  3                    0.00    427.76     87.41
  30                   0.00    421.01     60.01
  3002                 0.00    428.81     42.81
  3004                 0.00    428.81     42.81
  3005                 0.00    428.81     42.81
  3008                 0.00    428.81     43.81
  3012                 0.00    428.81     58.08
  3013                 0.00    428.81     63.88
  3016                 0.00    428.81     63.81
  3017                 0.00    428.81     46.81
  3018                71.00    428.11     51.11
  3019                 0.00    428.81     59.42
  3020                 0.00    428.81     60.70
  3024                 0.00    428.81     63.87
  31                  55.00    420.98     63.19
  3152                 0.00    428.81     62.61
  32                   0.00    420.99     62.99
  34                   0.00    420.97     69.95
  35                   0.00    420.97     83.97
  36                   0.00    420.97     92.97
  39                   0.00    420.97    107.97
  41                   0.00    420.97    113.97
  46                 172.00    428.36     52.36
  47                   0.00    427.35     69.17
  48                   0.00    426.50     82.50
  49                  88.00    423.16     71.16
  5                    0.00    427.60     80.60
  52                  86.00    423.12     72.12
  53                   0.00    428.68     72.68
  54                   0.00    428.51     83.51
  55                   0.00    428.31     98.31
  56                   0.00    428.31     94.31
  58                   0.00    428.31     95.31
  59                   0.00    428.31     99.31
  6                    0.00    426.90     74.90
  60                   0.00    427.76     82.76
  61                   0.00    427.76     88.76
  62                   0.00    426.81     72.81
  64                   0.00    427.79     96.79
  65                  86.00    427.14     87.14
  66                  81.00    427.50     88.50
  67                 117.00    427.29     95.29
  68                   0.00    426.85     87.85
  69                  57.00    426.11     75.11
  7                    0.00    427.25     74.25
  70                 167.00    426.24     86.24
  71                   0.00    427.02     90.02
  72                  99.00    426.81     70.81
  73                 175.00    426.67     71.67
  77                   0.00    426.81     70.81
  78                   0.00    426.81     86.67
  79                  44.00    427.25     74.25
  8                   63.00    426.75     76.75
  80                  94.00    426.90     77.90
  81                  73.00    422.18     63.18
  82                 103.00    423.39     65.39
  85                   0.00    426.24     87.24
  86                   0.00    426.24     89.24
  87                 105.00    426.47     66.47
  88                   0.00    426.42     73.42
  89                  77.00    426.30     59.30
  90                   0.00    426.29     70.29
  91                   0.00    426.23     54.23
  92                   0.00    425.89     65.89
  91B                106.00    425.76     65.76
  94                   0.00    426.69     87.69
  95                   0.00    426.13     83.13
  97                   0.00    425.76     94.76
  99                 153.00    423.40     73.40
  74                  71.00    424.75     66.04
  1074                 0.00    426.65     68.65
  11A                123.00    425.58     82.58
  1011                 0.00    425.76     82.76
  4                    0.00    420.78    108.78
  9                    0.00    420.97    110.97
  0                -3441.00    429.00      0.00  Reservoir
  balsa            -1474.00    421.97     -0.00  Reservoir
   
   
  Link Results:
  ----------------------------------------------
                       Flow  Velocity  Headloss
  Link                 m3/h       m/s    /1000m
  ----------------------------------------------
  TU1                 -0.00      0.00      0.00
  TU10                80.00      0.86      3.53
  TU100              341.00      0.75      1.06
  TU101              422.00      0.60      0.53
  TU102               86.00      1.53     13.54
  TU103              508.00      0.72      0.75
  TU104              508.00      0.72      0.75
  TU105             1989.00      0.87      0.53
  TU106             1989.00      0.87      0.53
  TU107                0.00      0.00      0.00
  TU108             1989.00      0.87      0.53
  TU109             2497.00      1.09      0.80
  TU11               178.00      0.81      1.89
  TU110             2497.00      1.09      0.80
  TU111                0.00      0.00      0.00
  TU112               -0.00      0.00      0.00
  TU113                0.00      0.00      0.00
  TU114                0.00      0.00      0.00
  TU115             2584.00      0.91      0.51
  TU116             2584.00      0.91      0.51
  TU117               -0.00      0.00      0.00
  TU118                0.00      0.00      0.00
  TU119             2584.00      0.91      0.51
  TU12                73.00      0.83      3.42
  TU120             2584.00      0.91      0.51
  TU121               -0.00      0.00      0.00
  TU122                0.00      0.00      0.00
  TU123               -0.00      0.00      0.00
  TU124               86.00      0.98      4.61
  TU125              174.00      1.27      5.66
  TU126              174.00      0.80      1.82
  TU127              174.00      0.80      1.82
  TU128                0.00      0.00      0.00
  TU129                0.00      0.00      0.00
  TU13               119.00      0.87      2.82
  TU130               60.00      0.26      0.24
  TU131              150.00      0.65      1.23
  TU132               65.00      0.28      0.27
  TU133              215.00      0.94      2.37
  TU134              106.00      1.14      5.89
  TU135              294.00      0.65      0.81
  TU136              352.00      0.78      1.13
  TU137              526.00      0.74      0.80
  TU138              526.00      0.74      0.80
  TU139              526.00      0.52      0.33
  TU14               386.00      0.85      1.34
  TU140              769.00      0.76      0.66
  TU141                0.00      0.00      0.00
  TU142               99.00      0.27      0.18
  TU143               -0.00      0.00      0.00
  TU144               -0.00      0.00      0.00
  TU145              106.00      0.73      2.01
  TU146              106.00      0.46      0.65
  TU147              106.00      0.29      0.21
  TU148               -0.00      0.00      0.00
  TU149               -0.00      0.00      0.00
  TU15                -0.00      0.00      0.00
  TU150               -0.00      0.00      0.00
  TU151              106.00      0.15      0.04
  TU152              153.00      1.75     13.25
  TU15301            512.00      0.72      0.76
  TU15302            441.00      0.62      0.58
  TU1074              71.00      0.93      4.58
  TU154              687.00      0.67      0.54
  TU155               62.00      1.04      6.50
  TU156              749.00      0.74      0.63
  TU157              848.00      0.83      0.79
  TU158                0.00      0.00      0.00
  TU159              848.00      0.83      0.79
  TU16              3441.00      0.62      0.17
  TU160               63.00      1.12      7.66
  TU161              911.00      0.90      0.90
  TU162             1078.00      0.78      0.58
  TU163             1034.00      0.75      0.54
  TU164             1078.00      0.78      0.58
  TU166               73.00      1.50     14.35
  TU167              103.00      1.35      9.03
  TU168              103.00      1.35      9.03
  TU169              176.00      1.48      8.15
  TU17                56.00      1.00      6.18
  TU170              270.00      1.24      4.06
  TU171              764.00      0.55      0.31
  TU17201            123.00      1.62     12.51
  TU17202              0.00      0.00      0.00
  TU1011A            123.00      1.62     12.51
  TU173              123.00      0.90      3.00
  TU174               -0.00      0.00      0.00
  TU175              123.00      0.56      0.97
  TU176              503.00      0.49      0.30
  TU177              641.00      0.63      0.47
  TU178              503.00      0.49      0.30
  TU179                0.00      0.00      0.00
  TU18                56.00      0.64      2.11
  TU180                0.00      0.00      0.00
  TU181                0.00      0.00      0.00
  TU182                0.00      0.00      0.00
  TU183                0.00      0.00      0.00
  TU184                0.00      0.00      0.00
  TU185              494.00      1.09      2.10
  TU186              215.00      0.58      0.74
  TU187              294.00      0.65      0.81
  TU188             1213.00      0.88      0.72
  TU189             1213.00      0.88      0.72
  TU19                74.00      1.32     10.28
  TU190               71.00      0.93      4.58
  TU191               -0.00      0.00      0.00
  TU192                0.00      0.00      0.00
  TU193                0.00      0.00      0.00
  TU194               -0.00      0.00      0.00
  TU195                0.00      0.00      0.00
  TU196                0.00      0.00      0.00
  TU197               -0.00      0.00      0.00
  TU198                0.00      0.00      0.00
  TU199                0.00      0.00      0.00
  TU2                  0.00      0.00      0.00
  TU20               130.00      0.95      3.32
  TU200               -0.00      0.00      0.00
  TU201                0.00      0.00      0.00
  TU203               71.00      1.19      8.32
  TU204               88.00      0.04      0.00
  TU205               88.00      0.04      0.00
  TU21                71.00      0.60      1.56
  TU22              1343.00      0.74      0.45
  TU23              1414.00      0.78      0.50
  TU24              1414.00      0.78      0.50
  TU25              1474.00      0.81      0.50
  TU26               560.00      0.55      0.37
  TU27               560.00      0.55      0.37
  TU28               602.00      0.59      0.42
  TU29               653.00      0.64      0.49
  TU3                  0.00      0.00      0.00
  TU30                77.00      1.59     15.82
  TU31               158.00      1.80     14.06
  TU32                80.00      0.91      4.04
  TU33               238.00      1.09      3.22
  TU34               302.00      1.38      4.99
  TU35                63.00      1.12      7.66
  TU36                63.00      0.72      2.62
  TU37               365.00      1.04      2.21
  TU38               365.00      1.04      2.21
  TU39                -0.00      0.00      0.00
  TU4                336.00      0.48      0.35
  TU40                65.00      0.47      0.94
  TU41               430.00      0.95      1.63
  TU42                79.00      0.55      1.18
  TU43               494.00      0.70      0.71
  TU44               494.00      0.70      0.71
  TU45               560.00      0.79      0.89
  TU46               560.00      0.79      0.89
  TU47                -0.00      0.00      0.00
  TU48                 0.00      0.00      0.00
  TU49                 0.00      0.00      0.00
  TU5                336.00      0.48      0.35
  TU50                 0.00      0.00      0.00
  TU52                 0.00      0.00      0.00
  TU53                 0.00      0.00      0.00
  TU54                 0.00      0.00      0.00
  TU55                 0.00      0.00      0.00
  TU56                 0.00      0.00      0.00
  TU57                 0.00      0.00      0.00
  TU58                 0.00      0.00      0.00
  TU59                 0.00      0.00      0.00
  TU6                494.00      0.70      0.71
  TU61                 0.00      0.00      0.00
  TU62                71.00      0.38      0.51
  TU63                 0.00      0.00      0.00
  TU65                 0.00      0.00      0.00
  TU66                71.00      0.23      0.16
  TU67                71.00      0.20      0.11
  TU68                71.00      0.20      0.11
  TU69                71.00      0.10      0.02
  TU7                  0.00      0.00      0.00
  TU70               126.00      0.18      0.06
  TU71               126.00      0.18      0.06
  TU72               368.00      0.81      1.22
  TU73               368.00      0.81      1.22
  TU74               368.00      0.81      1.22
  TU75               368.00      0.81      1.22
  TU76               368.00      0.81      1.22
  TU77               434.00      0.96      1.66
  TU78                63.00      1.30     10.95
  TU79               115.00      1.51     11.06
  TU8                 98.00      1.06      5.11
  TU80                62.00      1.28     10.64
  TU81               177.00      1.49      8.23
  TU82                65.00      1.16      8.11
  TU83               122.00      1.60     12.33
  TU84                 0.00      0.00      0.00
  TU85                69.00      0.50      1.05
  TU86                69.00      0.32      0.34
  TU87                69.00      0.37      0.49
  TU88               191.00      0.42      0.37
  TU89                 0.00      0.00      0.00
  TU9                  0.00      0.00      0.00
  TU90                 0.00      0.00      0.00
  TU91                -0.00      0.00      0.00
  TU92               167.00      0.76      1.69
  TU93               167.00      0.47      0.53
  TU94                 0.00      0.00      0.00
  TU95               167.00      0.47      0.53
  TU96                 0.00      0.00      0.00
  TU97                57.00      1.01      6.38
  TU98                57.00      0.65      2.18
  TU99               224.00      0.50      0.49
  TU4000               0.00      0.00      0.00
  TU60                71.00      1.46     13.63
  TU64                71.00      0.38      0.51
  TU51                 0.00      0.00      0.00
  2                   71.00      1.46     36.00  PBV
  3                    0.00      0.00      0.00  PBV
   
  Analysis ended Fri Sep  8 13:22:05 2023
