  Page 1                                    Fri Sep  8 13:18:18 2023

  ******************************************************************
  *                           E P A N E T                          *
  *                   Hydraulic and Water Quality                  *
  *                   Analysis for Pipe Networks                   *
  *                         Version 2.2                            *
  ******************************************************************
  
  Analysis begun Fri Sep  8 13:18:18 2023

   
  Node Results:
  ----------------------------------------------
                     Demand      Head  Pressure
  Node                 m3/h         m         m
  ----------------------------------------------
  3661                 0.00    428.97     50.83
  482                  0.00    428.92     82.92
  661                  0.00    425.99     95.99
  6610                 0.00    428.29     68.29
  6611                 0.00    428.67     93.67
  6612                 0.00    428.46     66.09
  6613                 0.00    427.36     72.36
  6615                 0.00    425.95     86.95
  6616                 0.00    425.99     64.99
  6617                 0.00    425.17     82.17
  6618                 0.00    425.98     77.98
  662                  0.00    428.85    100.85
  6620                 0.00    425.94    117.94
  6621                 0.00    425.94     97.94
  6622                 0.00    425.94     88.94
  6623                 0.00    425.94     74.94
  6624                 0.00    425.94     73.94
  6625                 0.00    389.57     77.57
  6626                 0.00    425.78    104.78
  6627                 0.00    425.99    104.99
  6628                 0.00    427.37     88.37
  6629                 0.00    428.68     88.68
  663                  0.00    428.78     87.78
  6630                 0.00    428.33     88.53
  6632                 0.00    428.77     88.77
  6633                 0.00    428.95     66.31
  6634                 0.00    428.96     57.96
  6635                 0.00    428.93     76.93
  6636                 0.00    428.93     72.93
  6637                 0.00    428.92     61.92
  6639                 0.00    428.34     68.34
  664                  0.00    428.76     80.76
  6640                 0.00    428.29     68.29
  6641                 0.00    428.37     69.69
  6642                 0.00    428.30     72.30
  6643                 0.00    428.60     76.60
  6644                 0.00    428.64     76.64
  6645                 0.00    428.66     78.66
  6646                 0.00    428.76     81.74
  6648                 0.00    428.76     82.75
  6649                 0.00    428.75     89.75
  665                  0.00    428.75     83.75
  666                  0.00    428.71     88.71
  6665                 0.00    428.88     63.74
  6666                 0.00    428.90     61.24
  667                  0.00    428.64     76.64
  668                  0.00    425.99     95.99
  669                  0.00    428.66     83.66
  1                    0.00    428.90     98.90
  10                   0.00    428.60     76.60
  100                120.00    428.27     73.27
  100B                85.00    427.78     69.78
  101                114.00    426.97     73.97
  103                  0.00    428.64     89.64
  104                  0.00    428.64     89.64
  105                  0.00    427.36     72.36
  106                 57.00    427.27     72.27
  107                  0.00    425.95     86.95
  108                 58.00    425.12     86.56
  109                  0.00    425.76     88.76
  11B                  0.00    428.74     85.74
  110                 70.00    425.94     79.94
  111                 55.00    425.81     87.03
  112                  0.00    425.88     83.88
  113                  0.00    425.68    102.68
  114                  0.00    425.43     77.43
  115                  0.00    425.31     79.31
  116                  0.00    425.39     80.39
  117                 83.00    425.06     82.06
  118                  0.00    425.17     86.17
  119                  0.00    425.17    102.36
  12                   0.00    428.71     98.37
  121                  0.00    425.49     76.69
  122                  0.00    425.39     77.49
  123                  0.00    425.39     79.39
  125                  0.00    425.47     74.47
  126                  0.00    424.92     76.92
  127                161.00    422.73     79.40
  128                  0.00    425.99     63.99
  129                  0.00    425.99     69.99
  130                  0.00    425.99     84.91
  130B                 0.00    425.99     72.99
  132                  0.00    425.99     92.99
  134                  0.00    425.99    104.99
  135                  0.00    425.99    109.99
  137                  0.00    425.99    116.99
  139                  0.00    425.99     65.99
  14                   0.00    428.64     90.64
  140                  0.00    425.99     74.99
  141                  0.00    425.99     73.99
  142                  0.00    425.99     64.99
  143                  0.00    425.99     85.02
  144                  0.00    425.99     66.99
  146                  0.00    425.86     79.86
  147                  0.00    425.78    104.78
  148                  0.00    425.85     92.85
  149                  0.00    389.57     76.36
  15                   0.00    428.67     93.67
  150                101.00    389.33     81.26
  151                  0.00    389.33     84.09
  152                  0.00    389.33     79.31
  153                  0.00    389.33     79.33
  154                  0.00    425.94    100.94
  157                  0.00    425.94    122.94
  158A                 0.00    425.94    104.94
  158B                 0.00    425.94    104.94
  16B                  0.00    428.67     94.67
  160                  0.00    428.91     61.91
  162                  0.00    428.91     60.91
  163                  0.00    428.90     54.90
  164                 63.00    428.88     69.22
  165                  0.00    428.88     67.58
  166                  0.00    428.88     67.87
  167                  0.00    428.88     58.24
  169                  0.00    428.88     62.38
  17A                  0.00    428.67     93.67
  170                100.00    428.92     69.92
  17B                  0.00    428.67     93.67
  171                  0.00    428.93     76.93
  172                  0.00    428.93     88.93
  18B                  0.00    428.67    103.67
  19                   0.00    428.95     70.95
  2                    0.00    428.86    102.86
  20                  72.00    428.97     64.97
  2002                 0.00    428.66     78.66
  2003                 0.00    428.66     78.66
  21                   0.00    426.19     64.59
  22                   0.00    426.19     64.59
  222                  0.00    426.14     76.14
  24                   0.00    426.12     82.12
  25                   0.00    426.08     81.08
  26                   0.00    425.98     77.98
  27                   0.00    426.04     76.04
  28                   0.00    426.03     76.03
  29                  55.00    425.99     69.99
  3                    0.00    428.82     88.47
  30                   0.00    425.99     64.99
  3002                 0.00    428.97     42.97
  3004                 0.00    428.97     42.97
  3005                 0.00    428.97     42.97
  3008                 0.00    428.97     43.97
  3012                 0.00    428.97     58.24
  3013                 0.00    428.97     64.04
  3016                 0.00    428.97     63.97
  3017                 0.00    428.97     46.97
  3018                 0.00    428.95     51.95
  3019                 0.00    428.97     59.58
  3020                 0.00    428.97     60.86
  3024                 0.00    428.97     64.03
  31                  59.00    425.95     68.16
  3152                 0.00    428.97     62.77
  32                   0.00    425.97     67.97
  34                   0.00    425.94     74.92
  35                   0.00    425.94     88.94
  36                   0.00    425.94     97.94
  39                   0.00    425.94    112.94
  41                   0.00    425.94    118.94
  46                   0.00    428.95     52.95
  47                   0.00    428.88     70.70
  48                   0.00    428.92     84.92
  49                   0.00    428.92     76.92
  5                    0.00    428.80     81.80
  52                   0.00    428.92     77.92
  53                   0.00    428.96     72.96
  54                   0.00    428.93     83.93
  55                   0.00    428.90     98.90
  56                   0.00    428.90     94.90
  58                   0.00    428.90     95.90
  59                   0.00    428.90     99.90
  6                    0.00    428.64     76.64
  60                   0.00    426.78     81.78
  61                  74.00    425.80     86.80
  62                 103.00    424.61     70.61
  64                   0.00    428.81     97.81
  65                   0.00    428.77     88.77
  66                  82.00    428.76     89.76
  67                   0.00    428.73     96.73
  68                   0.00    428.33     89.33
  69                  58.00    427.56     76.56
  7                    0.00    428.77     75.77
  70                   0.00    428.57     88.57
  71                   0.00    428.68     91.68
  72                   0.00    428.56     72.56
  73                   0.00    428.59     73.59
  77                   0.00    428.56     72.56
  78                   0.00    428.56     88.42
  79                  47.00    428.77     75.77
  8                    0.00    428.66     78.66
  80                   0.00    428.76     79.76
  81                   0.00    428.76     69.76
  82                   0.00    428.76     70.76
  85                  57.00    427.11     88.11
  86                   0.00    427.37     90.37
  87                 112.00    428.48     68.48
  88                   0.00    428.46     75.46
  89                   0.00    428.41     61.41
  90                   0.00    428.30     72.30
  91                   0.00    428.34     56.34
  92                   0.00    428.29     68.29
  91B                  0.00    428.29     68.29
  94                   0.00    428.75     89.75
  95                   0.00    428.75     85.75
  97                   0.00    428.75     97.75
  99                   0.00    428.41     78.41
  74                   0.00    428.58     69.87
  1074                 0.00    428.58     70.58
  11A                  0.00    428.75     85.75
  1011                 0.00    428.75     85.75
  4                    0.00    425.57    113.57
  9                    0.00    425.94    115.94
  0                -1144.00    429.00      0.00  Reservoir
  balsa             -642.00    426.19      0.00  Reservoir
   
   
  Link Results:
  ----------------------------------------------
                       Flow  Velocity  Headloss
  Link                 m3/h       m/s    /1000m
  ----------------------------------------------
  TU1                 -0.00      0.00      0.00
  TU10                 0.00      0.00      0.00
  TU100              115.00      0.25      0.15
  TU101              197.00      0.28      0.14
  TU102                0.00      0.00      0.00
  TU103              197.00      0.28      0.13
  TU104              197.00      0.28      0.13
  TU105              638.00      0.28      0.07
  TU106              638.00      0.28      0.07
  TU107                0.00      0.00      0.00
  TU108              712.00      0.31      0.08
  TU109              909.00      0.40      0.13
  TU11               171.00      0.78      1.76
  TU110              909.00      0.40      0.13
  TU111                0.00      0.00      0.00
  TU112               -0.00      0.00      0.00
  TU113                0.00      0.00      0.00
  TU114                0.00      0.00      0.00
  TU115              909.00      0.32      0.08
  TU116              909.00      0.32      0.08
  TU117                0.00      0.00      0.00
  TU118                0.00      0.00      0.00
  TU119              909.00      0.32      0.08
  TU12                 0.00      0.00      0.00
  TU120              909.00      0.32      0.08
  TU121               -0.00      0.00      0.00
  TU122                0.00      0.00      0.00
  TU123               -0.00      0.00      0.00
  TU124                0.00      0.00      0.00
  TU125               -0.00      0.00      0.00
  TU126               -0.00      0.00      0.00
  TU127               -0.00      0.00      0.00
  TU128                0.00      0.00      0.00
  TU129                0.00      0.00      0.00
  TU13                 0.00      0.00      0.00
  TU130               -0.00      0.00      0.00
  TU131               -0.00      0.00      0.00
  TU132                0.00      0.00      0.00
  TU133               -0.00      0.00      0.00
  TU134               -0.00      0.00      0.00
  TU135               63.00      0.14      0.05
  TU136               63.00      0.14      0.05
  TU137               63.00      0.09      0.02
  TU138              163.00      0.23      0.10
  TU139              163.00      0.16      0.04
  TU14               171.00      0.38      0.30
  TU140              163.00      0.16      0.04
  TU141              103.00      1.73     16.46
  TU142              103.00      0.28      0.20
  TU143               -0.00      0.00      0.00
  TU144               85.00      0.92      3.94
  TU145               -0.00      0.00      0.00
  TU146               85.00      0.37      0.44
  TU147               85.00      0.23      0.14
  TU148                0.00      0.00      0.00
  TU149              120.00      0.83      2.52
  TU15                -0.00      0.00      0.00
  TU150              120.00      0.83      2.52
  TU151              205.00      0.29      0.14
  TU152                0.00      0.00      0.00
  TU15301            317.00      0.45      0.32
  TU15302            317.00      0.45      0.32
  TU1074               0.00      0.00      0.00
  TU154              317.00      0.31      0.13
  TU155                0.00      0.00      0.00
  TU156              317.00      0.31      0.13
  TU157              420.00      0.41      0.22
  TU158                0.00      0.00      0.00
  TU159              420.00      0.41      0.22
  TU16              1144.00      0.21      0.02
  TU160                0.00      0.00      0.00
  TU161              420.00      0.41      0.22
  TU162              218.00      0.16      0.03
  TU163              171.00      0.12      0.02
  TU164              218.00      0.16      0.04
  TU166               -0.00      0.00      0.00
  TU167               -0.00      0.00      0.00
  TU168                0.00      0.00      0.00
  TU169                0.00      0.00      0.00
  TU17                58.00      1.03      6.59
  TU170                0.00      0.00      0.00
  TU171              171.00      0.12      0.02
  TU17201              0.00      0.00      0.00
  TU17202              0.00      0.00      0.00
  TU1011A             -0.00      0.00      0.00
  TU173               -0.00      0.00      0.00
  TU174               -0.00      0.00      0.00
  TU175               -0.00      0.00      0.00
  TU176              171.00      0.17      0.04
  TU177              171.00      0.17      0.04
  TU178              171.00      0.17      0.04
  TU179                0.00      0.00      0.00
  TU18                58.00      0.66      2.25
  TU180                0.00      0.00      0.00
  TU181                0.00      0.00      0.00
  TU182                0.00      0.00      0.00
  TU183               74.00      0.84      3.51
  TU184                0.00      0.00      0.00
  TU185              244.00      0.54      0.58
  TU186               63.00      0.17      0.08
  TU187               63.00      0.14      0.05
  TU188              584.00      0.42      0.19
  TU189              584.00      0.42      0.19
  TU19                 0.00      0.00      0.00
  TU190               -0.00      0.00      0.00
  TU191               74.00      1.32     10.28
  TU192                0.00      0.00      0.00
  TU193                0.00      0.00      0.00
  TU194               -0.00      0.00      0.00
  TU195                0.00      0.00      0.00
  TU196                0.00      0.00      0.00
  TU197               -0.00      0.00      0.00
  TU198                0.00      0.00      0.00
  TU199                0.00      0.00      0.00
  TU2                  0.00      0.00      0.00
  TU20                58.00      0.42      0.77
  TU200               -0.00      0.00      0.00
  TU201                0.00      0.00      0.00
  TU203                0.00      0.00      0.00
  TU204               72.00      0.03      0.00
  TU205               72.00      0.03      0.00
  TU21                -0.00      0.00      0.00
  TU22               642.00      0.35      0.12
  TU23               642.00      0.35      0.12
  TU24               642.00      0.35      0.12
  TU25               642.00      0.35      0.12
  TU26               160.00      0.16      0.04
  TU27               160.00      0.16      0.04
  TU28               215.00      0.21      0.07
  TU29               215.00      0.21      0.07
  TU3                  0.00      0.00      0.00
  TU30                 0.00      0.00      0.00
  TU31                -0.00      0.00      0.00
  TU32                83.00      0.95      4.32
  TU33                83.00      0.38      0.47
  TU34                83.00      0.38      0.47
  TU35                 0.00      0.00      0.00
  TU36                 0.00      0.00      0.00
  TU37                83.00      0.24      0.15
  TU38                83.00      0.24      0.15
  TU39               161.00      1.84     14.56
  TU4                205.00      0.29      0.14
  TU40               161.00      1.18      4.91
  TU41               244.00      0.54      0.58
  TU42                 0.00      0.00      0.00
  TU43               299.00      0.42      0.28
  TU44               299.00      0.42      0.28
  TU45               369.00      0.52      0.42
  TU46               369.00      0.52      0.42
  TU47                 0.00      0.00      0.00
  TU48                 0.00      0.00      0.00
  TU49                 0.00      0.00      0.00
  TU5                205.00      0.29      0.14
  TU50                 0.00      0.00      0.00
  TU52                 0.00      0.00      0.00
  TU53                 0.00      0.00      0.00
  TU54                 0.00      0.00      0.00
  TU55                 0.00      0.00      0.00
  TU56                 0.00      0.00      0.00
  TU57                 0.00      0.00      0.00
  TU58                 0.00      0.00      0.00
  TU59                 0.00      0.00      0.00
  TU6                244.00      0.35      0.20
  TU61                 0.00      0.00      0.00
  TU62               101.00      0.54      0.97
  TU63                 0.00      0.00      0.00
  TU65                 0.00      0.00      0.00
  TU66               101.00      0.33      0.31
  TU67               101.00      0.29      0.21
  TU68               101.00      0.29      0.21
  TU69               101.00      0.14      0.04
  TU7                  0.00      0.00      0.00
  TU70               160.00      0.23      0.09
  TU71               160.00      0.23      0.09
  TU72                 0.00      0.00      0.00
  TU73                 0.00      0.00      0.00
  TU74                 0.00      0.00      0.00
  TU75                 0.00      0.00      0.00
  TU76                 0.00      0.00      0.00
  TU77                 0.00      0.00      0.00
  TU78                 0.00      0.00      0.00
  TU79                 0.00      0.00      0.00
  TU8                114.00      1.23      6.73
  TU80                 0.00      0.00      0.00
  TU81                 0.00      0.00      0.00
  TU82                 0.00      0.00      0.00
  TU83                 0.00      0.00      0.00
  TU84                 0.00      0.00      0.00
  TU85                 0.00      0.00      0.00
  TU86                 0.00      0.00      0.00
  TU87                 0.00      0.00      0.00
  TU88                 0.00      0.00      0.00
  TU89                57.00      1.01      6.38
  TU9                 57.00      0.96      5.57
  TU90                 0.00      0.00      0.00
  TU91                57.00      0.65      2.18
  TU92                57.00      0.26      0.24
  TU93                57.00      0.16      0.08
  TU94                 0.00      0.00      0.00
  TU95                57.00      0.16      0.08
  TU96                 0.00      0.00      0.00
  TU97                58.00      1.03      6.59
  TU98                58.00      0.66      2.25
  TU99               115.00      0.25      0.15
  TU4000               0.00      0.00      0.00
  TU60                 0.00      0.00      0.00
  TU64               101.00      0.54      0.97
  TU51                 0.00      0.00      0.00
  2                  101.00      2.08     36.00
  3                    0.00      0.00      0.00
   
  Analysis ended Fri Sep  8 13:18:18 2023
