  Page 1                                    Fri Sep  8 13:10:01 2023

  ******************************************************************
  *                           E P A N E T                          *
  *                   Hydraulic and Water Quality                  *
  *                   Analysis for Pipe Networks                   *
  *                         Version 2.2                            *
  ******************************************************************
  
  Analysis begun Fri Sep  8 13:10:01 2023

   
  Node Results:
  ----------------------------------------------
                     Demand      Head  Pressure
  Node                 m3/h         m         m
  ----------------------------------------------
  3661                 0.00    429.00     50.86
  482                  0.00    429.00     83.00
  661                  0.00    424.59     94.59
  6610                 0.00    428.99     68.99
  6611                 0.00    428.91     93.91
  6612                 0.00    428.99     66.62
  6613                 0.00    428.75     73.75
  6615                 0.00    425.17     86.17
  6616                 0.00    424.95     63.95
  6617                 0.00    425.09     82.09
  6618                 0.00    425.10     77.10
  662                  0.00    428.99    100.99
  6620                 0.00    424.94    116.94
  6621                 0.00    424.94     96.94
  6622                 0.00    424.94     87.94
  6623                 0.00    424.94     73.94
  6624                 0.00    424.94     72.94
  6625                 0.00    388.89     76.89
  6626                 0.00    424.89    103.89
  6627                 0.00    424.59    103.59
  6628                 0.00    428.99     89.99
  6629                 0.00    428.99     88.99
  663                  0.00    428.99     87.99
  6630                 0.00    428.99     89.19
  6632                 0.00    428.99     88.99
  6633                 0.00    429.00     66.36
  6634                 0.00    429.00     58.00
  6635                 0.00    429.00     77.00
  6636                 0.00    429.00     73.00
  6637                 0.00    429.00     62.00
  6639                 0.00    428.99     68.99
  664                  0.00    428.98     80.98
  6640                 0.00    428.99     68.99
  6641                 0.00    428.99     70.31
  6642                 0.00    428.99     72.99
  6643                 0.00    428.99     76.99
  6644                 0.00    428.99     76.99
  6645                 0.00    428.99     78.99
  6646                 0.00    428.98     81.96
  6648                 0.00    428.98     82.97
  6649                 0.00    428.97     89.97
  665                  0.00    428.97     83.97
  666                  0.00    428.99     88.99
  6665                 0.00    429.00     63.86
  6666                 0.00    429.00     61.34
  667                  0.00    428.99     76.99
  668                  0.00    424.59     94.59
  669                  0.00    428.99     83.99
  1                    0.00    429.00     99.00
  10                   0.00    428.99     76.99
  100                  0.00    428.99     73.99
  100B                 0.00    428.99     70.99
  101                  0.00    428.75     75.75
  103                  0.00    428.90     89.90
  104                  0.00    428.90     89.90
  105                  0.00    428.75     73.75
  106                 52.00    428.68     73.68
  107                  0.00    425.17     86.17
  108                  0.00    425.17     86.61
  109                  0.00    425.17     88.17
  11B                  0.00    428.96     85.96
  110                 67.00    425.09     79.09
  111                 57.00    425.09     86.31
  112                  0.00    425.09     83.09
  113                  0.00    425.09    102.09
  114                  0.00    425.09     77.09
  115                  0.00    425.09     79.09
  116                  0.00    425.09     80.09
  117                  0.00    425.09     82.09
  118                  0.00    425.09     86.09
  119                  0.00    425.09    102.28
  12                  56.00    428.93     98.59
  121                  0.00    425.09     76.29
  122                  0.00    425.09     77.19
  123                  0.00    425.09     79.09
  125                  0.00    425.09     74.09
  126                  0.00    425.09     77.09
  127                  0.00    425.09     81.76
  128                  0.00    424.93     62.93
  129                  0.00    424.69     68.69
  130                161.00    424.59     83.51
  130B                68.00    424.63     71.63
  132                  0.00    424.59     91.59
  134                  0.00    424.59    103.59
  135                  0.00    424.59    108.59
  137                  0.00    424.59    115.59
  139                  0.00    424.59     64.59
  14                  56.00    428.90     90.90
  140                  0.00    424.59     73.59
  141                  0.00    424.59     72.59
  142                  0.00    424.59     63.59
  143                  0.00    424.59     83.62
  144                 85.00    424.79     65.79
  146                  0.00    424.90     78.90
  147                  0.00    424.89    103.89
  148                 68.00    424.89     91.89
  149                  0.00    388.89     75.68
  15                   0.00    428.91     93.91
  150                  0.00    388.89     80.82
  151                  0.00    388.89     83.65
  152                  0.00    388.89     78.87
  153                  0.00    388.89     78.89
  154                  0.00    424.94     99.94
  157                  0.00    424.94    121.94
  158A                 0.00    424.94    103.94
  158B                 0.00    424.94    103.94
  16B                  0.00    428.91     94.91
  160                  0.00    429.00     62.00
  162                  0.00    429.00     61.00
  163                  0.00    429.00     55.00
  164                  0.00    429.00     69.34
  165                  0.00    429.00     67.70
  166                  0.00    429.00     67.99
  167                  0.00    429.00     58.36
  169                  0.00    429.00     62.50
  17A                  0.00    428.91     93.91
  170                  0.00    429.00     70.00
  17B                  0.00    428.91     93.91
  171                  0.00    429.00     77.00
  172                  0.00    429.00     89.00
  18B                  0.00    428.91    103.91
  19                   0.00    429.00     71.00
  2                    0.00    428.99    102.99
  20                   0.00    429.00     65.00
  2002                 0.00    428.99     78.99
  2003                 0.00    428.99     78.99
  21                   0.00    425.22     63.62
  22                   0.00    425.21     63.61
  222                  0.00    425.18     75.18
  24                   0.00    425.17     81.17
  25                   0.00    425.14     80.14
  26                   0.00    425.10     77.10
  27                   0.00    425.11     75.11
  28                   0.00    425.07     75.07
  29                   0.00    424.97     68.97
  3                    0.00    428.99     88.64
  30                   0.00    424.95     63.95
  3002                 0.00    429.00     43.00
  3004                 0.00    429.00     43.00
  3005                 0.00    429.00     43.00
  3008                 0.00    429.00     44.00
  3012                 0.00    429.00     58.27
  3013                 0.00    429.00     64.07
  3016                 0.00    429.00     64.00
  3017                 0.00    429.00     47.00
  3018                 0.00    429.00     52.00
  3019                 0.00    429.00     59.61
  3020                 0.00    429.00     60.89
  3024                 0.00    429.00     64.06
  31                   0.00    424.94     67.15
  3152                 0.00    429.00     62.80
  32                   0.00    424.95     66.95
  34                   0.00    424.94     73.92
  35                   0.00    424.94     87.94
  36                   0.00    424.94     96.94
  39                   0.00    424.94    111.94
  41                   0.00    424.94    117.94
  46                   0.00    429.00     53.00
  47                   0.00    429.00     70.82
  48                   0.00    429.00     85.00
  49                   0.00    429.00     77.00
  5                    0.00    428.99     81.99
  52                   0.00    429.00     78.00
  53                   0.00    429.00     73.00
  54                   0.00    429.00     84.00
  55                   0.00    429.00     99.00
  56                   0.00    429.00     95.00
  58                   0.00    429.00     96.00
  59                   0.00    429.00    100.00
  6                    0.00    428.99     76.99
  60                   0.00    428.99     83.99
  61                   0.00    428.99     89.99
  62                   0.00    428.99     74.99
  64                   0.00    428.99     97.99
  65                   0.00    428.99     88.99
  66                   0.00    428.99     89.99
  67                   0.00    428.99     96.99
  68                   0.00    428.99     89.99
  69                   0.00    428.99     77.99
  7                    0.00    428.98     75.98
  70                   0.00    428.99     88.99
  71                   0.00    428.99     91.99
  72                   0.00    428.99     72.99
  73                   0.00    428.99     73.99
  77                   0.00    428.99     72.99
  78                   0.00    428.99     88.85
  79                   0.00    428.98     75.98
  8                    0.00    428.99     78.99
  80                   0.00    428.98     79.98
  81                   0.00    428.98     69.98
  82                   0.00    428.98     70.98
  85                   0.00    428.99     89.99
  86                   0.00    428.99     91.99
  87                   0.00    428.99     68.99
  88                   0.00    428.99     75.99
  89                   0.00    428.99     61.99
  90                   0.00    428.99     72.99
  91                   0.00    428.99     56.99
  92                   0.00    428.99     68.99
  91B                  0.00    428.99     68.99
  94                   0.00    428.97     89.97
  95                   0.00    428.97     85.97
  97                   0.00    428.97     97.97
  99                   0.00    428.99     78.99
  74                   0.00    428.99     70.28
  1074                 0.00    428.99     70.99
  11A                  0.00    428.97     85.97
  1011                 0.00    428.97     85.97
  4                    0.00    424.89    112.89
  9                    0.00    424.94    114.94
  0                 -164.00    429.00      0.00  Reservoir
  balsa             -506.00    425.22     -0.00  Reservoir
   
   
  Link Results:
  ----------------------------------------------
                       Flow  Velocity  Headloss
  Link                 m3/h       m/s    /1000m
  ----------------------------------------------
  TU1                 -0.00      0.00      0.00
  TU10                 0.00      0.00      0.00
  TU100                0.00      0.00      0.00
  TU101                0.00      0.00      0.00
  TU102               -0.00      0.00      0.00
  TU103                0.00      0.00      0.00
  TU104                0.00      0.00      0.00
  TU105              164.00      0.07      0.01
  TU106              164.00      0.07      0.01
  TU107                0.00      0.00      0.00
  TU108              164.00      0.07      0.01
  TU109              164.00      0.07      0.01
  TU11                52.00      0.24      0.21
  TU110              164.00      0.07      0.01
  TU111                0.00      0.00      0.00
  TU112               -0.00      0.00      0.00
  TU113                0.00      0.00      0.00
  TU114                0.00      0.00      0.00
  TU115              164.00      0.06      0.00
  TU116              164.00      0.06      0.00
  TU117               -0.00      0.00      0.00
  TU118                0.00      0.00      0.00
  TU119              164.00      0.06      0.00
  TU12                 0.00      0.00      0.00
  TU120              164.00      0.06      0.00
  TU121                0.00      0.00      0.00
  TU122                0.00      0.00      0.00
  TU123                0.00      0.00      0.00
  TU124                0.00      0.00      0.00
  TU125               -0.00      0.00      0.00
  TU126               -0.00      0.00      0.00
  TU127               -0.00      0.00      0.00
  TU128                0.00      0.00      0.00
  TU129                0.00      0.00      0.00
  TU13                 0.00      0.00      0.00
  TU130                0.00      0.00      0.00
  TU131               -0.00      0.00      0.00
  TU132                0.00      0.00      0.00
  TU133               -0.00      0.00      0.00
  TU134               -0.00      0.00      0.00
  TU135               -0.00      0.00      0.00
  TU136                0.00      0.00      0.00
  TU137                0.00      0.00      0.00
  TU138                0.00      0.00      0.00
  TU139                0.00      0.00      0.00
  TU14               108.00      0.24      0.13
  TU140                0.00      0.00      0.00
  TU141                0.00      0.00      0.00
  TU142                0.00      0.00      0.00
  TU143               -0.00      0.00      0.00
  TU144               -0.00      0.00      0.00
  TU145               -0.00      0.00      0.00
  TU146                0.00      0.00      0.00
  TU147               -0.00      0.00      0.00
  TU148               -0.00      0.00      0.00
  TU149               -0.00      0.00      0.00
  TU15                -0.00      0.00      0.00
  TU150               -0.00      0.00      0.00
  TU151               -0.00      0.00      0.00
  TU152               -0.00      0.00      0.00
  TU15301              0.00      0.00      0.00
  TU15302              0.00      0.00      0.00
  TU1074               0.00      0.00      0.00
  TU154               -0.00      0.00      0.00
  TU155               -0.00      0.00      0.00
  TU156               -0.00      0.00      0.00
  TU157               -0.00      0.00      0.00
  TU158                0.00      0.00      0.00
  TU159               -0.00      0.00      0.00
  TU16               164.00      0.03      0.00
  TU160                0.00      0.00      0.00
  TU161               -0.00      0.00      0.00
  TU162              164.00      0.12      0.02
  TU163              164.00      0.12      0.02
  TU164              164.00      0.12      0.02
  TU166               -0.00      0.00      0.00
  TU167               -0.00      0.00      0.00
  TU168                0.00      0.00      0.00
  TU169                0.00      0.00      0.00
  TU17                -0.00      0.00      0.00
  TU170                0.00      0.00      0.00
  TU171              164.00      0.12      0.02
  TU17201             -0.00      0.00      0.00
  TU17202              0.00      0.00      0.00
  TU1011A             -0.00      0.00      0.00
  TU173               -0.00      0.00      0.00
  TU174               -0.00      0.00      0.00
  TU175               -0.00      0.00      0.00
  TU176              164.00      0.16      0.04
  TU177              164.00      0.16      0.04
  TU178              108.00      0.11      0.02
  TU179                0.00      0.00      0.00
  TU18                 0.00      0.00      0.00
  TU180                0.00      0.00      0.00
  TU181                0.00      0.00      0.00
  TU182                0.00      0.00      0.00
  TU183                0.00      0.00      0.00
  TU184                0.00      0.00      0.00
  TU185               -0.00      0.00      0.00
  TU186               -0.00      0.00      0.00
  TU187               -0.00      0.00      0.00
  TU188              506.00      0.37      0.15
  TU189              506.00      0.37      0.15
  TU19                 0.00      0.00      0.00
  TU190               -0.00      0.00      0.00
  TU191                0.00      0.00      0.00
  TU192                0.00      0.00      0.00
  TU193                0.00      0.00      0.00
  TU194               -0.00      0.00      0.00
  TU195                0.00      0.00      0.00
  TU196                0.00      0.00      0.00
  TU197               -0.00      0.00      0.00
  TU198                0.00      0.00      0.00
  TU199                0.00      0.00      0.00
  TU2                  0.00      0.00      0.00
  TU20                 0.00      0.00      0.00
  TU200               -0.00      0.00      0.00
  TU201                0.00      0.00      0.00
  TU203                0.00      0.00      0.00
  TU204                0.00      0.00      0.00
  TU205                0.00      0.00      0.00
  TU21                -0.00      0.00      0.00
  TU22               506.00      0.28      0.08
  TU23               506.00      0.28      0.08
  TU24               506.00      0.28      0.08
  TU25               506.00      0.28      0.12
  TU26               382.00      0.38      0.18
  TU27               382.00      0.38      0.18
  TU28               382.00      0.38      0.18
  TU29               382.00      0.38      0.18
  TU3                  0.00      0.00      0.00
  TU30                 0.00      0.00      0.00
  TU31                -0.00      0.00      0.00
  TU32                 0.00      0.00      0.00
  TU33                 0.00      0.00      0.00
  TU34                 0.00      0.00      0.00
  TU35                -0.00      0.00      0.00
  TU36                 0.00      0.00      0.00
  TU37                 0.00      0.00      0.00
  TU38                 0.00      0.00      0.00
  TU39                -0.00      0.00      0.00
  TU4                 -0.00      0.00      0.00
  TU40                -0.00      0.00      0.00
  TU41                -0.00      0.00      0.00
  TU42                 0.00      0.00      0.00
  TU43                57.00      0.08      0.01
  TU44                57.00      0.08      0.01
  TU45               124.00      0.18      0.06
  TU46               124.00      0.18      0.06
  TU47                -0.00      0.00      0.00
  TU48                 0.00      0.00      0.00
  TU49                 0.00      0.00      0.00
  TU5                  0.00      0.00      0.00
  TU50                 0.00      0.00      0.00
  TU52                 0.00      0.00      0.00
  TU53                 0.00      0.00      0.00
  TU54                 0.00      0.00      0.00
  TU55                 0.00      0.00      0.00
  TU56                 0.00      0.00      0.00
  TU57                 0.00      0.00      0.00
  TU58                 0.00      0.00      0.00
  TU59                 0.00      0.00      0.00
  TU6                 -0.00      0.00      0.00
  TU61                 0.00      0.00      0.00
  TU62                -0.00      0.00      0.00
  TU63                 0.00      0.00      0.00
  TU65                 0.00      0.00      0.00
  TU66                 0.00      0.00      0.00
  TU67                68.00      0.19      0.10
  TU68                68.00      0.19      0.11
  TU69                68.00      0.10      0.02
  TU7                  0.00      0.00      0.00
  TU70                68.00      0.10      0.02
  TU71                68.00      0.10      0.02
  TU72                 0.00      0.00      0.00
  TU73               161.00      0.36      0.27
  TU74               229.00      0.51      0.52
  TU75               229.00      0.51      0.52
  TU76               314.00      0.69      0.92
  TU77               314.00      0.69      0.91
  TU78                 0.00      0.00      0.00
  TU79                 0.00      0.00      0.00
  TU8                  0.00      0.00      0.00
  TU80                 0.00      0.00      0.00
  TU81                 0.00      0.00      0.00
  TU82                 0.00      0.00      0.00
  TU83                 0.00      0.00      0.00
  TU84                 0.00      0.00      0.00
  TU85                 0.00      0.00      0.00
  TU86                 0.00      0.00      0.00
  TU87                 0.00      0.00      0.00
  TU88                 0.00      0.00      0.00
  TU89                 0.00      0.00      0.00
  TU9                 52.00      0.87      4.72
  TU90                 0.00      0.00      0.00
  TU91                -0.00      0.00      0.00
  TU92                -0.00      0.00      0.00
  TU93                 0.00      0.00      0.00
  TU94                 0.00      0.00      0.00
  TU95                 0.00      0.00      0.00
  TU96                 0.00      0.00      0.00
  TU97                 0.00      0.00      0.00
  TU98                 0.00      0.00      0.00
  TU99                 0.00      0.00      0.00
  TU4000               0.00      0.00      0.00
  TU60                 0.00      0.00      0.00
  TU64                 0.00      0.00      0.00
  TU51                 0.00      0.00      0.00
  2                    0.00      0.00     36.00
  3                    0.00      0.00      0.00
   
  Analysis ended Fri Sep  8 13:10:01 2023
