  Page 1                                    Fri Sep  8 13:11:27 2023

  ******************************************************************
  *                           E P A N E T                          *
  *                   Hydraulic and Water Quality                  *
  *                   Analysis for Pipe Networks                   *
  *                         Version 2.2                            *
  ******************************************************************
  
  Analysis begun Fri Sep  8 13:11:27 2023

   
  Node Results:
  ----------------------------------------------
                     Demand      Head  Pressure
  Node                 m3/h         m         m
  ----------------------------------------------
  3661                 0.00    429.00     50.86
  482                  0.00    429.00     83.00
  661                  0.00    427.10     97.10
  6610                 0.00    429.00     69.00
  6611                 0.00    428.96     93.96
  6612                 0.00    429.00     66.63
  6613                 0.00    428.95     73.95
  6615                 0.00    427.17     88.17
  6616                 0.00    427.10     66.10
  6617                 0.00    427.16     84.16
  6618                 0.00    427.16     79.16
  662                  0.00    429.00    101.00
  6620                 0.00    425.66    117.66
  6621                 0.00    426.58     98.58
  6622                 0.00    426.79     89.79
  6623                 0.00    427.00     76.00
  6624                 0.00    427.04     75.04
  6625                 0.00    391.04     79.04
  6626                 0.00    427.04    106.04
  6627                 0.00    427.10    106.10
  6628                 0.00    429.00     90.00
  6629                 0.00    429.00     89.00
  663                  0.00    429.00     88.00
  6630                 0.00    429.00     89.20
  6632                 0.00    429.00     89.00
  6633                 0.00    429.00     66.36
  6634                 0.00    429.00     58.00
  6635                 0.00    429.00     77.00
  6636                 0.00    429.00     73.00
  6637                 0.00    429.00     62.00
  6639                 0.00    429.00     69.00
  664                  0.00    428.99     80.99
  6640                 0.00    429.00     69.00
  6641                 0.00    429.00     70.32
  6642                 0.00    429.00     73.00
  6643                 0.00    429.00     77.00
  6644                 0.00    429.00     77.00
  6645                 0.00    429.00     79.00
  6646                 0.00    428.99     81.97
  6648                 0.00    428.99     82.98
  6649                 0.00    428.99     89.99
  665                  0.00    428.99     83.99
  666                  0.00    429.00     89.00
  6665                 0.00    429.00     63.86
  6666                 0.00    429.00     61.34
  667                  0.00    429.00     77.00
  668                  0.00    427.10     97.10
  669                  0.00    429.00     84.00
  1                    0.00    429.00     99.00
  10                   0.00    429.00     77.00
  100                  0.00    429.00     74.00
  100B                 0.00    429.00     71.00
  101                  0.00    428.95     75.95
  103                  0.00    428.95     89.95
  104                  0.00    428.95     89.95
  105                  0.00    428.95     73.95
  106                  0.00    428.95     73.95
  107                  0.00    427.17     88.17
  108                  0.00    427.17     88.61
  109                  0.00    427.17     90.17
  11B                  0.00    428.99     85.99
  110                  0.00    427.16     81.16
  111                  0.00    427.16     88.38
  112                  0.00    427.16     85.16
  113                  0.00    427.16    104.16
  114                  0.00    427.16     79.16
  115                  0.00    427.16     81.16
  116                  0.00    427.16     82.16
  117                  0.00    427.16     84.16
  118                  0.00    427.16     88.16
  119                  0.00    427.16    104.35
  12                   0.00    428.97     98.63
  121                  0.00    427.16     78.36
  122                  0.00    427.16     79.26
  123                  0.00    427.16     81.16
  125                  0.00    427.16     76.16
  126                  0.00    427.16     79.16
  127                  0.00    427.16     83.83
  128                  0.00    427.10     65.10
  129                  0.00    427.10     71.10
  130                  0.00    427.10     86.02
  130B                 0.00    427.10     74.10
  132                  0.00    427.10     94.10
  134                  0.00    427.10    106.10
  135                  0.00    427.10    111.10
  137                  0.00    427.10    118.10
  139                  0.00    427.10     67.10
  14                  93.00    428.95     90.95
  140                  0.00    427.10     76.10
  141                  0.00    427.10     75.10
  142                  0.00    427.10     66.10
  143                  0.00    427.10     86.13
  144                  0.00    427.10     68.10
  146                  0.00    427.04     81.04
  147                  0.00    427.04    106.04
  148                  0.00    427.04     94.04
  149                  0.00    391.04     77.83
  15                   0.00    428.96     93.96
  150                  0.00    391.04     82.97
  151                  0.00    391.04     85.80
  152                  0.00    391.04     81.02
  153                  0.00    391.04     81.04
  154                  0.00    426.48    101.48
  157                  0.00    425.66    122.66
  158A                79.00    412.51     91.51
  158B                79.00    412.48     91.48
  16B                  0.00    428.96     94.96
  160                  0.00    429.00     62.00
  162                  0.00    429.00     61.00
  163                  0.00    429.00     55.00
  164                  0.00    429.00     69.34
  165                  0.00    429.00     67.70
  166                  0.00    429.00     67.99
  167                  0.00    429.00     58.36
  169                  0.00    429.00     62.50
  17A                  0.00    428.96     93.96
  170                  0.00    429.00     70.00
  17B                  0.00    428.96     93.96
  171                  0.00    429.00     77.00
  172                  0.00    429.00     89.00
  18B                  0.00    428.96    103.96
  19                   0.00    429.00     71.00
  2                    0.00    429.00    103.00
  20                   0.00    429.00     65.00
  2002                 0.00    429.00     79.00
  2003                 0.00    429.00     79.00
  21                   0.00    427.18     65.58
  22                   0.00    427.18     65.58
  222                  0.00    427.17     77.17
  24                   0.00    427.17     83.17
  25                   0.00    427.16     82.16
  26                   0.00    427.16     79.16
  27                   0.00    427.16     77.16
  28                   0.00    427.14     77.14
  29                  56.00    427.11     71.11
  3                    0.00    429.00     88.65
  30                   0.00    427.10     66.10
  3002                 0.00    429.00     43.00
  3004                 0.00    429.00     43.00
  3005                 0.00    429.00     43.00
  3008                 0.00    429.00     44.00
  3012                 0.00    429.00     58.27
  3013                 0.00    429.00     64.07
  3016                 0.00    429.00     64.00
  3017                 0.00    429.00     47.00
  3018                 0.00    429.00     52.00
  3019                 0.00    429.00     59.61
  3020                 0.00    429.00     60.89
  3024                 0.00    429.00     64.06
  31                   0.00    427.07     69.28
  3152                 0.00    429.00     62.80
  32                   0.00    427.08     69.08
  34                   0.00    427.00     75.98
  35                   0.00    426.79     89.79
  36                   0.00    426.58     98.58
  39                   0.00    426.18    113.18
  41                   0.00    425.35    118.35
  46                   0.00    429.00     53.00
  47                   0.00    429.00     70.82
  48                   0.00    429.00     85.00
  49                   0.00    429.00     77.00
  5                    0.00    429.00     82.00
  52                   0.00    429.00     78.00
  53                   0.00    429.00     73.00
  54                   0.00    429.00     84.00
  55                   0.00    429.00     99.00
  56                   0.00    429.00     95.00
  58                   0.00    429.00     96.00
  59                   0.00    429.00    100.00
  6                    0.00    429.00     77.00
  60                   0.00    429.00     84.00
  61                   0.00    429.00     90.00
  62                   0.00    429.00     75.00
  64                   0.00    429.00     98.00
  65                   0.00    429.00     89.00
  66                   0.00    429.00     90.00
  67                   0.00    429.00     97.00
  68                   0.00    429.00     90.00
  69                   0.00    429.00     78.00
  7                    0.00    428.99     75.99
  70                   0.00    429.00     89.00
  71                   0.00    429.00     92.00
  72                   0.00    429.00     73.00
  73                   0.00    429.00     74.00
  77                   0.00    429.00     73.00
  78                   0.00    429.00     88.86
  79                   0.00    428.99     75.99
  8                    0.00    429.00     79.00
  80                   0.00    428.99     79.99
  81                   0.00    428.99     69.99
  82                   0.00    428.99     70.99
  85                   0.00    429.00     90.00
  86                   0.00    429.00     92.00
  87                   0.00    429.00     69.00
  88                   0.00    429.00     76.00
  89                   0.00    429.00     62.00
  90                   0.00    429.00     73.00
  91                   0.00    429.00     57.00
  92                   0.00    429.00     69.00
  91B                  0.00    429.00     69.00
  94                   0.00    428.99     89.99
  95                   0.00    428.99     85.99
  97                   0.00    428.99     97.99
  99                   0.00    429.00     79.00
  74                   0.00    429.00     70.29
  1074                 0.00    429.00     71.00
  11A                  0.00    428.99     85.99
  1011                 0.00    428.99     85.99
  4                    0.00    427.04    115.04
  9                    0.00    425.66    115.66
  0                  -93.00    429.00      0.00  Reservoir
  balsa             -214.00    427.18      0.00  Reservoir
   
   
  Link Results:
  ----------------------------------------------
                       Flow  Velocity  Headloss
  Link                 m3/h       m/s    /1000m
  ----------------------------------------------
  TU1                 -0.00      0.00      0.00
  TU10                 0.00      0.00      0.00
  TU100                0.00      0.00      0.00
  TU101                0.00      0.00      0.00
  TU102                0.00      0.00      0.00
  TU103                0.00      0.00      0.00
  TU104                0.00      0.00      0.00
  TU105               93.00      0.04      0.00
  TU106               93.00      0.04      0.00
  TU107                0.00      0.00      0.00
  TU108               93.00      0.04      0.00
  TU109               93.00      0.04      0.00
  TU11                -0.00      0.00      0.00
  TU110               93.00      0.04      0.00
  TU111                0.00      0.00      0.00
  TU112               -0.00      0.00      0.00
  TU113                0.00      0.00      0.00
  TU114                0.00      0.00      0.00
  TU115               93.00      0.03      0.00
  TU116               93.00      0.03      0.00
  TU117               -0.00      0.00      0.00
  TU118                0.00      0.00      0.00
  TU119               93.00      0.03      0.00
  TU12                 0.00      0.00      0.00
  TU120               93.00      0.03      0.00
  TU121                0.00      0.00      0.00
  TU122                0.00      0.00      0.00
  TU123               -0.00      0.00      0.00
  TU124                0.00      0.00      0.00
  TU125               -0.00      0.00      0.00
  TU126               -0.00      0.00      0.00
  TU127               -0.00      0.00      0.00
  TU128                0.00      0.00      0.00
  TU129                0.00      0.00      0.00
  TU13                 0.00      0.00      0.00
  TU130               -0.00      0.00      0.00
  TU131               -0.00      0.00      0.00
  TU132                0.00      0.00      0.00
  TU133               -0.00      0.00      0.00
  TU134               -0.00      0.00      0.00
  TU135               -0.00      0.00      0.00
  TU136                0.00      0.00      0.00
  TU137                0.00      0.00      0.00
  TU138                0.00      0.00      0.00
  TU139                0.00      0.00      0.00
  TU14                93.00      0.21      0.10
  TU140                0.00      0.00      0.00
  TU141                0.00      0.00      0.00
  TU142                0.00      0.00      0.00
  TU143               -0.00      0.00      0.00
  TU144               -0.00      0.00      0.00
  TU145               -0.00      0.00      0.00
  TU146               -0.00      0.00      0.00
  TU147               -0.00      0.00      0.00
  TU148               -0.00      0.00      0.00
  TU149               -0.00      0.00      0.00
  TU15                -0.00      0.00      0.00
  TU150               -0.00      0.00      0.00
  TU151               -0.00      0.00      0.00
  TU152                0.00      0.00      0.00
  TU15301              0.00      0.00      0.00
  TU15302              0.00      0.00      0.00
  TU1074               0.00      0.00      0.00
  TU154               -0.00      0.00      0.00
  TU155                0.00      0.00      0.00
  TU156               -0.00      0.00      0.00
  TU157               -0.00      0.00      0.00
  TU158                0.00      0.00      0.00
  TU159               -0.00      0.00      0.00
  TU16                93.00      0.02      0.00
  TU160                0.00      0.00      0.00
  TU161               -0.00      0.00      0.00
  TU162               93.00      0.07      0.01
  TU163               93.00      0.07      0.01
  TU164               93.00      0.07      0.01
  TU166               -0.00      0.00      0.00
  TU167               -0.00      0.00      0.00
  TU168                0.00      0.00      0.00
  TU169                0.00      0.00      0.00
  TU17                -0.00      0.00      0.00
  TU170                0.00      0.00      0.00
  TU171               93.00      0.07      0.01
  TU17201             -0.00      0.00      0.00
  TU17202              0.00      0.00      0.00
  TU1011A             -0.00      0.00      0.00
  TU173               -0.00      0.00      0.00
  TU174               -0.00      0.00      0.00
  TU175               -0.00      0.00      0.00
  TU176               93.00      0.09      0.01
  TU177               93.00      0.09      0.01
  TU178               93.00      0.09      0.01
  TU179                0.00      0.00      0.00
  TU18                 0.00      0.00      0.00
  TU180                0.00      0.00      0.00
  TU181                0.00      0.00      0.00
  TU182                0.00      0.00      0.00
  TU183                0.00      0.00      0.00
  TU184                0.00      0.00      0.00
  TU185               -0.00      0.00      0.00
  TU186               -0.00      0.00      0.00
  TU187               -0.00      0.00      0.00
  TU188              214.00      0.15      0.03
  TU189              214.00      0.15      0.03
  TU19                 0.00      0.00      0.00
  TU190               -0.00      0.00      0.00
  TU191                0.00      0.00      0.00
  TU192                0.00      0.00      0.00
  TU193                0.00      0.00      0.00
  TU194               -0.00      0.00      0.00
  TU195                0.00      0.00      0.00
  TU196                0.00      0.00      0.00
  TU197               -0.00      0.00      0.00
  TU198                0.00      0.00      0.00
  TU199                0.00      0.00      0.00
  TU2                  0.00      0.00      0.00
  TU20                 0.00      0.00      0.00
  TU200               -0.00      0.00      0.00
  TU201                0.00      0.00      0.00
  TU203                0.00      0.00      0.00
  TU204                0.00      0.00      0.00
  TU205                0.00      0.00      0.00
  TU21                -0.00      0.00      0.00
  TU22               214.00      0.12      0.02
  TU23               214.00      0.12      0.02
  TU24               214.00      0.12      0.02
  TU25               214.00      0.12      0.00
  TU26               158.00      0.16      0.04
  TU27               158.00      0.16      0.04
  TU28               214.00      0.21      0.06
  TU29               214.00      0.21      0.06
  TU3                  0.00      0.00      0.00
  TU30                 0.00      0.00      0.00
  TU31                -0.00      0.00      0.00
  TU32                 0.00      0.00      0.00
  TU33                 0.00      0.00      0.00
  TU34                 0.00      0.00      0.00
  TU35                 0.00      0.00      0.00
  TU36                -0.00      0.00      0.00
  TU37                 0.00      0.00      0.00
  TU38                 0.00      0.00      0.00
  TU39                -0.00      0.00      0.00
  TU4                 -0.00      0.00      0.00
  TU40                -0.00      0.00      0.00
  TU41                -0.00      0.00      0.00
  TU42                 0.00      0.00      0.00
  TU43                -0.00      0.00      0.00
  TU44                -0.00      0.00      0.00
  TU45                -0.00      0.00      0.00
  TU46                -0.00      0.00      0.00
  TU47                -0.00      0.00      0.00
  TU48               158.00      2.08     19.86
  TU49               158.00      1.33      6.68
  TU5                  0.00      0.00      0.00
  TU50                 0.00      0.00      0.00
  TU52               158.00      0.52      0.70
  TU53               158.00      0.52      0.70
  TU54                 0.00      0.00      0.00
  TU55               158.00      0.52      0.70
  TU56                 0.00      0.00      0.00
  TU57               158.00      0.45      0.48
  TU58                 0.00      0.00      0.00
  TU59               158.00      0.45      0.48
  TU6                 -0.00      0.00      0.00
  TU61                 0.00      0.00      0.00
  TU62                -0.00      0.00      0.00
  TU63                 0.00      0.00      0.00
  TU65                 0.00      0.00      0.00
  TU66                 0.00      0.00      0.00
  TU67                 0.00      0.00      0.00
  TU68                 0.00      0.00      0.00
  TU69               158.00      0.22      0.09
  TU7                  0.00      0.00      0.00
  TU70               158.00      0.22      0.09
  TU71               158.00      0.22      0.09
  TU72                 0.00      0.00      0.00
  TU73                 0.00      0.00      0.00
  TU74                 0.00      0.00      0.00
  TU75                 0.00      0.00      0.00
  TU76                 0.00      0.00      0.00
  TU77                 0.00      0.00      0.00
  TU78                 0.00      0.00      0.00
  TU79                 0.00      0.00      0.00
  TU8                  0.00      0.00      0.00
  TU80                 0.00      0.00      0.00
  TU81                 0.00      0.00      0.00
  TU82                -0.00      0.00      0.00
  TU83                 0.00      0.00      0.00
  TU84                 0.00      0.00      0.00
  TU85                 0.00      0.00      0.00
  TU86                 0.00      0.00      0.00
  TU87                 0.00      0.00      0.00
  TU88                 0.00      0.00      0.00
  TU89                 0.00      0.00      0.00
  TU9                  0.00      0.00      0.00
  TU90                 0.00      0.00      0.00
  TU91                -0.00      0.00      0.00
  TU92                -0.00      0.00      0.00
  TU93                 0.00      0.00      0.00
  TU94                 0.00      0.00      0.00
  TU95                 0.00      0.00      0.00
  TU96                 0.00      0.00      0.00
  TU97                 0.00      0.00      0.00
  TU98                 0.00      0.00      0.00
  TU99                 0.00      0.00      0.00
  TU4000              79.00      1.04      5.56
  TU60                 0.00      0.00      0.00
  TU64                 0.00      0.00      0.00
  TU51               158.00      0.84      2.19
  2                   -0.00      0.00     36.00
  3                  158.00      3.26      0.00
   
  Analysis ended Fri Sep  8 13:11:27 2023
