  Page 1                                    Fri Sep  8 13:06:12 2023

  ******************************************************************
  *                           E P A N E T                          *
  *                   Hydraulic and Water Quality                  *
  *                   Analysis for Pipe Networks                   *
  *                         Version 2.2                            *
  ******************************************************************
  
  Analysis begun Fri Sep  8 13:06:12 2023

   
  Node Results:
  ----------------------------------------------
                     Demand      Head  Pressure
  Node                 m3/h         m         m
  ----------------------------------------------
  3661                 0.00    428.98     50.84
  482                  0.00    428.98     82.98
  661                  0.00    426.48     96.48
  6610                 0.00    428.56     68.56
  6611                 0.00    428.32     93.32
  6612                 0.00    428.61     66.24
  6613                 0.00    428.45     73.45
  6615                 0.00    427.24     88.24
  6616                 0.00    426.84     65.84
  6617                 0.00    427.04     84.04
  6618                 0.00    427.15     79.15
  662                  0.00    428.85    100.85
  6620                 0.00    426.71    118.71
  6621                 0.00    426.71     98.71
  6622                 0.00    426.71     89.71
  6623                 0.00    426.71     75.71
  6624                 0.00    426.72     74.72
  6625                 0.00    390.30     78.30
  6626                 0.00    426.46    105.46
  6627                 0.00    426.48    105.48
  6628                 0.00    427.82     88.82
  6629                 0.00    428.52     88.52
  663                  0.00    428.76     87.76
  6630                 0.00    428.71     88.91
  6632                 0.00    428.79     88.79
  6633                 0.00    428.95     66.31
  6634                 0.00    428.96     57.96
  6635                 0.00    428.98     76.98
  6636                 0.00    428.98     72.98
  6637                 0.00    428.98     61.98
  6639                 0.00    428.56     68.56
  664                  0.00    428.66     80.66
  6640                 0.00    428.56     68.56
  6641                 0.00    428.56     69.88
  6642                 0.00    428.56     72.56
  6643                 0.00    428.67     76.67
  6644                 0.00    428.70     76.70
  6645                 0.00    428.71     78.71
  6646                 0.00    428.66     81.64
  6648                 0.00    428.66     82.65
  6649                 0.00    428.23     89.23
  665                  0.00    428.59     83.59
  666                  0.00    428.71     88.71
  6665                 0.00    428.98     63.84
  6666                 0.00    428.98     61.32
  667                  0.00    428.70     76.70
  668                  0.00    426.48     96.48
  669                  0.00    428.38     83.38
  1                    0.00    428.91     98.91
  10                  66.00    428.29     76.29
  100                  0.00    428.56     73.56
  100B                 0.00    428.56     70.56
  101                  0.00    428.45     75.45
  103                  0.00    428.45     89.45
  104                  0.00    428.45     89.45
  105                  0.00    428.45     73.45
  106                  0.00    428.45     73.45
  107                  0.00    427.24     88.24
  108                  0.00    427.24     88.68
  109                  0.00    427.24     90.24
  11B                 85.00    428.56     85.56
  110                  0.00    427.14     81.14
  111                  0.00    427.13     88.35
  112                  0.00    427.14     85.14
  113                  0.00    427.11    104.11
  114                  0.00    427.06     79.06
  115                  0.00    427.04     81.04
  116                  0.00    427.04     82.04
  117                  0.00    427.04     84.04
  118                  0.00    427.04     88.04
  119                  0.00    427.04    104.23
  12                 137.00    428.48     98.14
  121                 40.00    427.07     78.27
  122                 51.00    424.68     76.78
  123                  0.00    426.71     80.71
  125                  0.00    427.07     76.07
  126                  0.00    427.07     79.07
  127                  0.00    427.07     83.74
  128                  0.00    426.82     64.82
  129                  0.00    426.58     70.58
  130                156.00    426.48     85.40
  130B                72.00    426.52     73.52
  132                  0.00    426.48     93.48
  134                  0.00    426.48    105.48
  135                  0.00    426.48    110.48
  137                  0.00    426.48    117.48
  139                  0.00    426.48     66.48
  14                   0.00    428.45     90.45
  140                  0.00    426.48     75.48
  141                  0.00    426.48     74.48
  142                  0.00    426.48     65.48
  143                  0.00    426.48     85.51
  144                 81.00    426.68     67.68
  146                  0.00    426.54     80.54
  147                  0.00    426.46    105.46
  148                 66.00    426.52     93.52
  149                  0.00    390.30     77.09
  15                   0.00    428.32     93.32
  150                 89.00    390.11     82.04
  151                  0.00    390.11     84.87
  152                  0.00    390.11     80.09
  153                  0.00    390.11     80.11
  154                  0.00    426.71    101.71
  157                  0.00    426.71    123.71
  158A                 0.00    426.71    105.71
  158B                 0.00    426.71    105.71
  16B                  0.00    428.45     94.45
  160                  0.00    428.98     61.98
  162                  0.00    428.98     60.98
  163                  0.00    428.98     54.98
  164                  0.00    428.98     69.32
  165                  0.00    428.98     67.68
  166                  0.00    428.98     67.97
  167                  0.00    428.98     58.34
  169                  0.00    428.98     62.48
  17A                144.00    428.23     93.23
  170                  0.00    428.98     69.98
  17B                  0.00    428.23     93.23
  171                  0.00    428.98     76.98
  172                  0.00    428.98     88.98
  18B                  0.00    428.23    103.23
  19                   0.00    428.95     70.95
  2                    0.00    428.86    102.86
  20                   0.00    428.98     64.98
  2002                 0.00    428.38     78.38
  2003                 0.00    428.38     78.38
  21                   0.00    427.32     65.72
  22                   0.00    427.32     65.72
  222                  0.00    427.27     77.27
  24                   0.00    427.24     83.24
  25                   0.00    427.20     82.20
  26                   0.00    427.15     79.15
  27                   0.00    427.15     77.15
  28                   0.00    427.08     77.08
  29                   0.00    426.87     70.87
  3                    0.00    428.81     88.46
  30                   0.00    426.85     65.85
  3002                 0.00    428.98     42.98
  3004                 0.00    428.98     42.98
  3005                 0.00    428.98     42.98
  3008                 0.00    428.98     43.98
  3012                 0.00    428.98     58.25
  3013                 0.00    428.98     64.05
  3016                 0.00    428.98     63.98
  3017                 0.00    428.98     46.98
  3018                 0.00    428.98     51.98
  3019                 0.00    428.98     59.59
  3020                 0.00    428.98     60.87
  3024                 0.00    428.98     64.04
  31                  44.00    426.75     68.96
  3152                 0.00    428.98     62.78
  32                   0.00    426.79     68.79
  34                  51.00    426.62     75.60
  35                   0.00    426.71     89.71
  36                   0.00    426.71     98.71
  39                   0.00    426.71    113.71
  41                   0.00    426.71    119.71
  46                   0.00    428.98     52.98
  47                   0.00    428.98     70.80
  48                   0.00    428.98     84.98
  49                   0.00    428.98     76.98
  5                    0.00    428.78     81.78
  52                   0.00    428.98     77.98
  53                   0.00    428.96     72.96
  54                   0.00    428.94     83.94
  55                   0.00    428.91     98.91
  56                   0.00    428.91     94.91
  58                   0.00    428.91     95.91
  59                   0.00    428.91     99.91
  6                    0.00    428.70     76.70
  60                   0.00    428.81     83.81
  61                   0.00    428.81     89.81
  62                   0.00    428.70     74.70
  64                   0.00    428.83     97.83
  65                   0.00    428.79     88.79
  66                   0.00    428.79     89.79
  67                   0.00    428.74     96.74
  68                   0.00    428.71     89.71
  69                   0.00    428.71     77.71
  7                    0.00    428.70     75.70
  70                 158.00    427.82     87.82
  71                   0.00    428.52     91.52
  72                   0.00    428.70     72.70
  73                   0.00    428.67     73.67
  77                   0.00    428.70     72.70
  78                   0.00    428.70     88.56
  79                   0.00    428.70     75.70
  8                    0.00    428.71     78.71
  80                   0.00    428.66     79.66
  81                   0.00    428.66     69.66
  82                   0.00    428.66     70.66
  85                   0.00    427.82     88.82
  86                   0.00    427.82     90.82
  87                   0.00    428.63     68.63
  88                   0.00    428.61     75.61
  89                  45.00    428.56     61.56
  90                   0.00    428.56     72.56
  91                   0.00    428.56     56.56
  92                   0.00    428.56     68.56
  91B                  0.00    428.56     68.56
  94                   0.00    428.23     89.23
  95                   0.00    427.42     84.42
  97                   0.00    426.88     95.88
  99                 148.00    425.83     75.83
  74                   0.00    428.67     69.96
  1074                 0.00    428.67     70.67
  11A                150.00    426.63     83.63
  1011                 0.00    426.88     83.88
  4                    0.00    426.30    114.30
  9                    0.00    426.71    116.71
  0                 -933.00    429.00      0.00  Reservoir
  balsa             -650.00    427.32      0.00  Reservoir
   
   
  Link Results:
  ----------------------------------------------
                       Flow  Velocity  Headloss
  Link                 m3/h       m/s    /1000m
  ----------------------------------------------
  TU1                 -0.00      0.00      0.00
  TU10                 0.00      0.00      0.00
  TU100              158.00      0.35      0.26
  TU101              158.00      0.22      0.09
  TU102                0.00      0.00      0.00
  TU103              158.00      0.22      0.09
  TU104              158.00      0.22      0.09
  TU105              775.00      0.34      0.09
  TU106              775.00      0.34      0.09
  TU107                0.00      0.00      0.00
  TU108              775.00      0.34      0.09
  TU109              933.00      0.41      0.13
  TU11                -0.00      0.00      0.00
  TU110              933.00      0.41      0.13
  TU111                0.00      0.00      0.00
  TU112               -0.00      0.00      0.00
  TU113                0.00      0.00      0.00
  TU114                0.00      0.00      0.00
  TU115              933.00      0.33      0.08
  TU116              933.00      0.33      0.08
  TU117               -0.00      0.00      0.00
  TU118                0.00      0.00      0.00
  TU119              933.00      0.33      0.08
  TU12                 0.00      0.00      0.00
  TU120              933.00      0.33      0.08
  TU121                0.00      0.00      0.00
  TU122                0.00      0.00      0.00
  TU123                0.00      0.00      0.00
  TU124                0.00      0.00      0.00
  TU125               -0.00      0.00      0.00
  TU126               -0.00      0.00      0.00
  TU127               -0.00      0.00      0.00
  TU128                0.00      0.00      0.00
  TU129                0.00      0.00      0.00
  TU13                 0.00      0.00      0.00
  TU130                0.00      0.00      0.00
  TU131               -0.00      0.00      0.00
  TU132                0.00      0.00      0.00
  TU133               -0.00      0.00      0.00
  TU134               -0.00      0.00      0.00
  TU135               -0.00      0.00      0.00
  TU136                0.00      0.00      0.00
  TU137                0.00      0.00      0.00
  TU138                0.00      0.00      0.00
  TU139                0.00      0.00      0.00
  TU14                -0.00      0.00      0.00
  TU140                0.00      0.00      0.00
  TU141                0.00      0.00      0.00
  TU142                0.00      0.00      0.00
  TU143               -0.00      0.00      0.00
  TU144               -0.00      0.00      0.00
  TU145               -0.00      0.00      0.00
  TU146               -0.00      0.00      0.00
  TU147               -0.00      0.00      0.00
  TU148                0.00      0.00      0.00
  TU149               -0.00      0.00      0.00
  TU15                -0.00      0.00      0.00
  TU150               -0.00      0.00      0.00
  TU151               -0.00      0.00      0.00
  TU152              148.00      1.69     12.46
  TU15301            193.00      0.27      0.13
  TU15302            193.00      0.27      0.13
  TU1074               0.00      0.00      0.00
  TU154              193.00      0.19      0.05
  TU155               66.00      1.11      7.28
  TU156              259.00      0.25      0.09
  TU157              259.00      0.25      0.09
  TU158                0.00      0.00      0.00
  TU159              259.00      0.25      0.09
  TU16               933.00      0.17      0.02
  TU160                0.00      0.00      0.00
  TU161              259.00      0.25      0.09
  TU162              516.00      0.37      0.15
  TU163              516.00      0.37      0.15
  TU164              516.00      0.37      0.15
  TU166               -0.00      0.00      0.00
  TU167               -0.00      0.00      0.00
  TU168                0.00      0.00      0.00
  TU169                0.00      0.00      0.00
  TU17                -0.00      0.00      0.00
  TU170                0.00      0.00      0.00
  TU171              516.00      0.37      0.15
  TU17201            150.00      1.97     18.04
  TU17202              0.00      0.00      0.00
  TU1011A            150.00      1.97     18.04
  TU173              150.00      1.10      4.31
  TU174               -0.00      0.00      0.00
  TU175              150.00      0.69      1.39
  TU176              281.00      0.28      0.11
  TU177              366.00      0.36      0.17
  TU178              144.00      0.14      0.03
  TU179              144.00      0.41      0.41
  TU18                 0.00      0.00      0.00
  TU180              144.00      0.41      0.41
  TU181                0.00      0.00      0.00
  TU182                0.00      0.00      0.00
  TU183                0.00      0.00      0.00
  TU184                0.00      0.00      0.00
  TU185               91.00      0.20      0.10
  TU186               -0.00      0.00      0.00
  TU187               -0.00      0.00      0.00
  TU188              650.00      0.47      0.23
  TU189              650.00      0.47      0.23
  TU19                 0.00      0.00      0.00
  TU190               -0.00      0.00      0.00
  TU191                0.00      0.00      0.00
  TU192                0.00      0.00      0.00
  TU193                0.00      0.00      0.00
  TU194               -0.00      0.00      0.00
  TU195                0.00      0.00      0.00
  TU196                0.00      0.00      0.00
  TU197               -0.00      0.00      0.00
  TU198                0.00      0.00      0.00
  TU199                0.00      0.00      0.00
  TU2                  0.00      0.00      0.00
  TU20                 0.00      0.00      0.00
  TU200               -0.00      0.00      0.00
  TU201                0.00      0.00      0.00
  TU203                0.00      0.00      0.00
  TU204                0.00      0.00      0.00
  TU205                0.00      0.00      0.00
  TU21                -0.00      0.00      0.00
  TU22               650.00      0.36      0.12
  TU23               650.00      0.36      0.12
  TU24               650.00      0.36      0.12
  TU25               650.00      0.36      0.12
  TU26               559.00      0.55      0.37
  TU27               559.00      0.55      0.37
  TU28               559.00      0.55      0.37
  TU29               559.00      0.55      0.37
  TU3                  0.00      0.00      0.00
  TU30                 0.00      0.00      0.00
  TU31                -0.00      0.00      0.00
  TU32                 0.00      0.00      0.00
  TU33                 0.00      0.00      0.00
  TU34                 0.00      0.00      0.00
  TU35                51.00      0.91      5.21
  TU36                51.00      0.58      1.79
  TU37                51.00      0.14      0.06
  TU38                51.00      0.14      0.06
  TU39                -0.00      0.00      0.00
  TU4                193.00      0.27      0.13
  TU40                -0.00      0.00      0.00
  TU41                51.00      0.11      0.04
  TU42                 0.00      0.00      0.00
  TU43                91.00      0.13      0.03
  TU44                91.00      0.13      0.03
  TU45                91.00      0.13      0.03
  TU46                91.00      0.13      0.03
  TU47                 0.00      0.00      0.00
  TU48                 0.00      0.00      0.00
  TU49                 0.00      0.00      0.00
  TU5                193.00      0.27      0.13
  TU50                 0.00      0.00      0.00
  TU52                 0.00      0.00      0.00
  TU53                 0.00      0.00      0.00
  TU54                 0.00      0.00      0.00
  TU55                 0.00      0.00      0.00
  TU56                 0.00      0.00      0.00
  TU57                 0.00      0.00      0.00
  TU58                51.00      0.91      5.21
  TU59                51.00      0.14      0.06
  TU6                 91.00      0.13      0.03
  TU61                 0.00      0.00      0.00
  TU62                89.00      0.47      0.77
  TU63                 0.00      0.00      0.00
  TU65                 0.00      0.00      0.00
  TU66                89.00      0.29      0.25
  TU67               155.00      0.44      0.46
  TU68               155.00      0.44      0.46
  TU69               206.00      0.29      0.15
  TU7                  0.00      0.00      0.00
  TU70               250.00      0.35      0.21
  TU71               250.00      0.35      0.21
  TU72                 0.00      0.00      0.00
  TU73               156.00      0.34      0.26
  TU74               228.00      0.50      0.51
  TU75               228.00      0.50      0.51
  TU76               309.00      0.68      0.89
  TU77               309.00      0.68      0.89
  TU78                 0.00      0.00      0.00
  TU79                 0.00      0.00      0.00
  TU8                  0.00      0.00      0.00
  TU80                 0.00      0.00      0.00
  TU81                 0.00      0.00      0.00
  TU82                 0.00      0.00      0.00
  TU83                 0.00      0.00      0.00
  TU84                 0.00      0.00      0.00
  TU85                 0.00      0.00      0.00
  TU86                 0.00      0.00      0.00
  TU87                 0.00      0.00      0.00
  TU88                 0.00      0.00      0.00
  TU89                 0.00      0.00      0.00
  TU9                  0.00      0.00      0.00
  TU90                 0.00      0.00      0.00
  TU91                -0.00      0.00      0.00
  TU92               158.00      0.72      1.52
  TU93               158.00      0.45      0.48
  TU94                 0.00      0.00      0.00
  TU95               158.00      0.45      0.48
  TU96                 0.00      0.00      0.00
  TU97                 0.00      0.00      0.00
  TU98                 0.00      0.00      0.00
  TU99               158.00      0.35      0.26
  TU4000               0.00      0.00      0.00
  TU60                 0.00      0.00      0.00
  TU64                89.00      0.47      0.77
  TU51                 0.00      0.00      0.00
  2                   89.00      1.83     36.00
  3                    0.00      0.00      0.00
   
  Analysis ended Fri Sep  8 13:06:12 2023
