  Page 1                                    Fri Sep  8 13:16:13 2023

  ******************************************************************
  *                           E P A N E T                          *
  *                   Hydraulic and Water Quality                  *
  *                   Analysis for Pipe Networks                   *
  *                         Version 2.2                            *
  ******************************************************************
  
  Analysis begun Fri Sep  8 13:16:13 2023

   
  Node Results:
  ----------------------------------------------
                     Demand      Head  Pressure
  Node                 m3/h         m         m
  ----------------------------------------------
  3661                 0.00    428.69     50.55
  482                  0.00    426.93     80.93
  661                  0.00    415.05     85.05
  6610                 0.00    422.77     62.77
  6611                 0.00    423.92     88.92
  6612                 0.00    424.30     61.93
  6613                 0.00    422.80     67.80
  6615                 0.00    418.35     79.35
  6616                 0.00    416.90     55.90
  6617                 0.00    415.46     72.46
  6618                 0.00    418.30     70.30
  662                  0.00    427.24     99.24
  6620                 0.00    413.84    105.84
  6621                 0.00    415.44     87.44
  6622                 0.00    415.81     78.81
  6623                 0.00    416.18     65.18
  6624                 0.00    416.29     64.29
  6625                 0.00    379.04     67.04
  6626                 0.00    415.51     94.51
  6627                 0.00    412.56     91.56
  6628                 0.00    425.41     86.41
  6629                 0.00    425.98     85.98
  663                  0.00    426.27     85.27
  6630                 0.00    426.42     86.62
  6632                 0.00    426.74     86.74
  6633                 0.00    428.35     65.71
  6634                 0.00    428.47     57.47
  6635                 0.00    428.18     76.18
  6636                 0.00    428.18     72.18
  6637                 0.00    427.85     60.85
  6639                 0.00    423.66     63.66
  664                  0.00    425.62     77.62
  6640                 0.00    423.35     63.35
  6641                 0.00    423.89     65.21
  6642                 0.00    423.84     67.84
  6643                 0.00    424.95     72.95
  6644                 0.00    425.25     73.25
  6645                 0.00    425.40     75.40
  6646                 0.00    421.51     74.49
  6648                 0.00    421.79     75.78
  6649                 0.00    424.11     85.11
  665                  0.00    425.31     80.31
  666                  0.00    426.42     86.42
  6665                 0.00    426.51     61.37
  6666                 0.00    427.34     59.68
  667                  0.00    425.21     73.21
  668                  0.00    415.04     85.04
  669                  0.00    425.86     80.86
  1                   68.00    427.79     97.79
  10                   0.00    424.95     72.95
  100                103.00    423.81     68.81
  100B                81.00    422.88     64.88
  101                118.00    422.39     69.39
  103                  0.00    421.64     82.64
  104                164.00    421.46     82.46
  105                  0.00    422.80     67.80
  106                 48.00    422.74     67.74
  107                 72.00    418.08     79.08
  108                 59.00    417.49     78.93
  109                  0.00    418.15     81.15
  11B                148.00    425.18     82.18
  110                 65.00    418.21     72.21
  111                  0.00    417.90     79.12
  112                  0.00    418.06     76.06
  113                  0.00    417.46     94.46
  114                 58.00    416.36     68.36
  115                  0.00    415.89     69.89
  116                  0.00    416.12     71.12
  117                 84.00    415.35     72.35
  118                 69.00    414.60     75.60
  119                  0.00    414.60     91.79
  12                   0.00    424.74     94.40
  121                  0.00    416.79     67.99
  122                 66.00    412.34     64.44
  123                  0.00    415.58     69.58
  125                  0.00    416.72     65.72
  126                 61.00    415.88     67.88
  127                143.00    414.11     70.78
  128                 50.00    416.83     54.83
  129                  0.00    415.84     59.84
  130                125.00    415.27     74.19
  130B                65.00    415.57     62.57
  132                 52.00    409.53     76.53
  134                 58.00    412.29     91.29
  135                 58.00    410.46     94.46
  137                 58.00    406.62     97.62
  139                 65.00    414.62     54.62
  14                 104.00    424.02     86.02
  140                  0.00    414.85     63.85
  141                  0.00    414.83     62.83
  142                  0.00    414.62     53.62
  143                 58.00    407.00     66.03
  144                 82.00    416.34     57.34
  146                  0.00    415.82     69.82
  147                 44.00    415.36     94.36
  148                 64.00    415.75     82.75
  149                  0.00    379.04     65.83
  15                   0.00    423.92     88.92
  150                 82.00    378.48     70.41
  151                  0.00    378.17     72.93
  152                 78.00    375.74     65.72
  153                  0.00    376.57     66.57
  154                  0.00    415.27     90.27
  157                 60.00    412.58    109.58
  158A                77.00    401.30     80.30
  158B                77.00    401.27     80.27
  16B                 67.00    424.16     90.16
  160                 60.00    427.80     60.80
  162                  0.00    427.57     59.57
  163                 91.00    427.03     53.03
  164                 64.00    427.00     67.34
  165                 61.00    426.51     65.21
  166                 90.00    426.51     65.50
  167                  0.00    426.51     55.87
  169                 75.00    426.73     60.23
  17A                  0.00    423.75     88.75
  170                  0.00    428.03     69.03
  17B                  0.00    423.58     88.58
  171                  0.00    428.18     76.18
  172                  0.00    428.18     88.18
  18B                207.00    418.42     93.42
  19                   0.00    428.35     70.35
  2                    0.00    427.36    101.36
  20                  86.00    428.69     64.69
  2002                 0.00    425.86     75.86
  2003                 0.00    425.86     75.86
  21                  60.00    419.73     58.13
  22                  65.00    419.71     58.11
  222                 70.00    419.31     69.31
  24                   0.00    419.08     75.08
  25                   0.00    418.75     73.75
  26                   0.00    418.30     70.30
  27                   0.00    418.41     68.41
  28                  56.00    418.03     68.03
  29                  49.00    417.06     61.06
  3                    0.00    426.83     86.48
  30                   0.00    416.94     55.94
  3002                 0.00    428.69     42.69
  3004                 0.00    428.69     42.69
  3005                 0.00    428.69     42.69
  3008                 0.00    428.69     43.69
  3012                 0.00    428.69     57.96
  3013                 0.00    428.69     63.76
  3016                 0.00    428.69     63.69
  3017               129.00    428.69     46.69
  3018                71.00    428.09     51.09
  3019                 0.00    428.69     59.30
  3020                 0.00    428.69     60.58
  3024                 0.00    428.69     63.75
  31                  51.00    416.48     58.69
  3152                 0.00    428.69     62.49
  32                   0.00    416.66     58.66
  34                  53.00    416.08     65.06
  35                   0.00    415.81     78.81
  36                   0.00    415.44     87.44
  39                   0.00    414.75    101.75
  41                   0.00    413.55    106.55
  46                   0.00    428.34     52.34
  47                   0.00    426.87     68.69
  48                   0.00    426.54     82.54
  49                  85.00    423.57     71.57
  5                    0.00    426.54     79.54
  52                  78.00    423.54     72.54
  53                   0.00    428.47     72.47
  54                   0.00    428.15     83.15
  55                   0.00    427.32     97.32
  56                  55.00    427.09     93.09
  58                 131.00    426.05     93.05
  59                   0.00    426.05     97.05
  6                    0.00    425.25     73.25
  60                  44.00    426.03     81.03
  61                   0.00    426.03     87.03
  62                 110.00    420.13     66.13
  64                   0.00    427.03     96.03
  65                  86.00    426.37     86.37
  66                  80.00    426.73     87.73
  67                 103.00    426.50     94.50
  68                   0.00    426.42     87.42
  69                   0.00    426.42     75.42
  7                    0.00    425.90     72.90
  70                 141.00    425.41     85.41
  71                 113.00    423.04     86.04
  72                  97.00    424.59     68.59
  73                 167.00    424.89     69.89
  77                 120.00    420.99     64.99
  78                   0.00    424.59     84.45
  79                  50.00    425.89     72.89
  8                    0.00    425.40     75.40
  80                  89.00    425.40     76.40
  81                  71.00    419.99     60.99
  82                 130.00    420.73     62.73
  85                   0.00    425.41     86.41
  86                   0.00    425.41     88.41
  87                 113.00    424.44     64.44
  88                   0.00    424.30     71.30
  89                  80.00    424.00     57.00
  90                   0.00    423.84     67.84
  91                   0.00    423.66     51.66
  92                   0.00    422.77     62.77
  91B                161.00    422.49     62.49
  94                  69.00    423.60     84.60
  95                   0.00    422.48     79.48
  97                 135.00    415.40     84.40
  99                 143.00    421.43     71.43
  74                  83.00    422.31     63.60
  1074                 0.00    424.84     66.84
  11A                 85.00    421.29     78.29
  1011                 0.00    421.38     78.38
  4                    0.00    415.04    103.04
  9                    0.00    413.84    103.84
  0                -4454.00    429.00      0.00  Reservoir
  balsa            -2234.00    419.73      0.00  Reservoir
   
   
  Link Results:
  ----------------------------------------------
                       Flow  Velocity  Headloss
  Link                 m3/h       m/s    /1000m
  ----------------------------------------------
  TU1                 -0.00      0.00      0.00
  TU10                 0.00      0.00      0.00
  TU100              357.00      0.79      1.16
  TU101              437.00      0.62      0.57
  TU102               86.00      1.53     13.54
  TU103              523.00      0.74      0.79
  TU104              523.00      0.74      0.79
  TU105             2743.00      1.20      0.96
  TU106             2743.00      1.20      0.96
  TU107                0.00      0.00      0.00
  TU108             2787.00      1.22      0.99
  TU109             3310.00      1.45      1.36
  TU11               166.00      0.76      1.67
  TU110             3310.00      1.45      1.36
  TU111                0.00      0.00      0.00
  TU112              131.00      0.96      3.36
  TU113              186.00      0.99      2.95
  TU114              186.00      0.99      2.95
  TU115             3564.00      1.26      0.93
  TU116             3564.00      1.26      0.93
  TU117               -0.00      0.00      0.00
  TU118                0.00      0.00      0.00
  TU119             3564.00      1.26      0.93
  TU12               164.00      1.87     15.06
  TU120             3564.00      1.26      0.93
  TU121               -0.00      0.00      0.00
  TU122                0.00      0.00      0.00
  TU123               -0.00      0.00      0.00
  TU124               78.00      0.89      3.86
  TU125              163.00      1.19      5.02
  TU126              163.00      0.75      1.61
  TU127              163.00      0.75      1.61
  TU128                0.00      0.00      0.00
  TU129                0.00      0.00      0.00
  TU13               164.00      1.20      5.08
  TU130               61.00      0.27      0.24
  TU131              151.00      0.66      1.24
  TU132               75.00      0.33      0.35
  TU133              226.00      0.98      2.60
  TU134              161.00      1.74     12.70
  TU135              381.00      0.84      1.30
  TU136              441.00      0.97      1.70
  TU137              604.00      0.85      1.03
  TU138              604.00      0.85      1.03
  TU139              604.00      0.59      0.42
  TU14               434.00      0.96      1.65
  TU140              675.00      0.66      0.52
  TU141              110.00      1.85     18.58
  TU142              327.00      0.88      1.60
  TU143               -0.00      0.00      0.00
  TU144               81.00      0.87      3.61
  TU145              161.00      1.11      4.30
  TU146              242.00      1.05      2.94
  TU147              242.00      0.65      0.92
  TU148               -0.00      0.00      0.00
  TU149              103.00      0.71      1.91
  TU15                -0.00      0.00      0.00
  TU150              103.00      0.71      1.91
  TU151              345.00      0.49      0.37
  TU152              143.00      1.63     11.70
  TU15301            764.00      1.08      1.58
  TU15302            681.00      0.96      1.28
  TU1074              83.00      1.09      6.08
  TU154              931.00      0.91      0.94
  TU155                0.00      0.00      0.00
  TU156              931.00      0.91      0.94
  TU157             1258.00      1.24      1.63
  TU158                0.00      0.00      0.00
  TU159             1258.00      1.24      1.63
  TU16              4454.00      0.80      0.27
  TU160                0.00      0.00      0.00
  TU161             1258.00      1.24      1.63
  TU162             1485.00      1.07      1.05
  TU163             1435.00      1.04      0.98
  TU164             1485.00      1.07      1.05
  TU166               71.00      1.46     13.63
  TU167              130.00      1.71     13.85
  TU168              130.00      1.71     13.85
  TU169              201.00      1.69     10.41
  TU17                59.00      1.05      6.80
  TU170              290.00      1.33      4.63
  TU171             1145.00      0.83      0.65
  TU17201            220.00      2.89     36.72
  TU17202            135.00      1.78     14.85
  TU1011A             85.00      1.12      6.35
  TU173              220.00      1.61      8.71
  TU174               69.00      1.23      9.05
  TU175              289.00      1.32      4.60
  TU176              708.00      0.70      0.57
  TU177              856.00      0.84      0.80
  TU178              708.00      0.70      0.57
  TU179              207.00      0.59      0.78
  TU18                59.00      0.67      2.32
  TU180              207.00      0.59      0.78
  TU181              207.00      1.74     10.99
  TU182              207.00      0.95      2.49
  TU183               44.00      0.50      1.37
  TU184                0.00      0.00      0.00
  TU185              481.00      1.06      2.00
  TU186              290.00      0.78      1.28
  TU187              381.00      0.84      1.30
  TU188             1908.00      1.38      1.66
  TU189             1908.00      1.38      1.66
  TU19                72.00      1.28      9.78
  TU190               78.00      1.03      5.43
  TU191                0.00      0.00      0.00
  TU192                0.00      0.00      0.00
  TU193                0.00      0.00      0.00
  TU194               -0.00      0.00      0.00
  TU195                0.00      0.00      0.00
  TU196                0.00      0.00      0.00
  TU197               -0.00      0.00      0.00
  TU198                0.00      0.00      0.00
  TU199                0.00      0.00      0.00
  TU2                  0.00      0.00      0.00
  TU20               131.00      0.96      3.36
  TU200               -0.00      0.00      0.00
  TU201                0.00      0.00      0.00
  TU203               71.00      1.19      8.32
  TU204               86.00      0.04      0.00
  TU205               86.00      0.04      0.00
  TU21                78.00      0.66      1.84
  TU22              2039.00      1.13      0.98
  TU23              2109.00      1.17      1.04
  TU24              2174.00      1.20      1.10
  TU25              2234.00      1.23      1.24
  TU26              1257.00      1.23      1.63
  TU27              1257.00      1.23      1.63
  TU28              1306.00      1.28      1.75
  TU29              1362.00      1.34      1.89
  TU3                  0.00      0.00      0.00
  TU30                 0.00      0.00      0.00
  TU31                69.00      0.79      3.09
  TU32                84.00      0.96      4.41
  TU33               153.00      0.70      1.44
  TU34               153.00      0.70      1.44
  TU35                66.00      1.17      8.34
  TU36                66.00      0.75      2.85
  TU37               219.00      0.62      0.87
  TU38               277.00      0.79      1.33
  TU39               143.00      1.63     11.70
  TU4                568.00      0.80      0.92
  TU40               204.00      1.49      7.58
  TU41               481.00      1.06      2.00
  TU42                91.00      0.63      1.52
  TU43               481.00      0.68      0.68
  TU44               481.00      0.68      0.68
  TU45               546.00      0.77      0.85
  TU46               546.00      0.77      0.85
  TU47                -0.00      0.00      0.00
  TU48               154.00      2.03     18.94
  TU49               154.00      1.30      6.38
  TU5                568.00      0.80      0.92
  TU50                60.00      1.24     10.02
  TU52               214.00      0.71      1.21
  TU53               214.00      0.71      1.21
  TU54                 0.00      0.00      0.00
  TU55               214.00      0.71      1.21
  TU56                 0.00      0.00      0.00
  TU57               214.00      0.61      0.83
  TU58                53.00      0.94      5.59
  TU59               267.00      0.76      1.25
  TU6                481.00      0.68      0.68
  TU61                 0.00      0.00      0.00
  TU62               160.00      0.85      2.24
  TU63                 0.00      0.00      0.00
  TU65                44.00      0.91      5.69
  TU66               204.00      0.67      1.11
  TU67               268.00      0.76      1.26
  TU68               268.00      0.76      1.26
  TU69               535.00      0.76      0.82
  TU7                120.00      2.02     21.82
  TU70               586.00      0.83      0.97
  TU71               586.00      0.83      0.97
  TU72               349.00      0.77      1.11
  TU73               474.00      1.05      1.95
  TU74               539.00      1.19      2.46
  TU75               539.00      1.19      2.46
  TU76               621.00      1.37      3.20
  TU77               671.00      1.48      3.69
  TU78                58.00      1.20      9.42
  TU79               116.00      1.53     11.23
  TU8                118.00      1.27      7.17
  TU80                58.00      1.20      9.42
  TU81               174.00      1.46      7.98
  TU82                58.00      1.03      6.59
  TU83               110.00      1.45     10.19
  TU84                 0.00      0.00      0.00
  TU85                65.00      0.47      0.94
  TU86                65.00      0.30      0.31
  TU87                65.00      0.35      0.44
  TU88               175.00      0.39      0.32
  TU89                 0.00      0.00      0.00
  TU9                 48.00      0.81      4.08
  TU90                 0.00      0.00      0.00
  TU91                -0.00      0.00      0.00
  TU92               141.00      0.65      1.24
  TU93               141.00      0.40      0.39
  TU94               113.00      1.29      7.59
  TU95               254.00      0.72      1.14
  TU96                 0.00      0.00      0.00
  TU97                 0.00      0.00      0.00
  TU98                 0.00      0.00      0.00
  TU99               254.00      0.56      0.62
  TU4000              77.00      1.01      5.31
  TU60                78.00      1.61     16.20
  TU64               160.00      0.85      2.24
  TU51               214.00      1.14      3.81
  2                  160.00      3.30     36.00  PBV
  3                  214.00      4.41      0.00  PBV
   
  Analysis ended Fri Sep  8 13:16:13 2023
