  Page 1                                    Fri Sep  8 13:07:10 2023

  ******************************************************************
  *                           E P A N E T                          *
  *                   Hydraulic and Water Quality                  *
  *                   Analysis for Pipe Networks                   *
  *                         Version 2.2                            *
  ******************************************************************
  
  Analysis begun Fri Sep  8 13:07:10 2023

   
  Node Results:
  ----------------------------------------------
                     Demand      Head  Pressure
  Node                 m3/h         m         m
  ----------------------------------------------
  3661                 0.00    428.91     50.77
  482                  0.00    428.78     82.78
  661                  0.00    423.35     93.35
  6610                 0.00    426.32     66.32
  6611                 0.00    427.91     92.91
  6612                 0.00    426.98     64.61
  6613                 0.00    426.15     71.15
  6615                 0.00    423.72     84.72
  6616                 0.00    423.49     62.49
  6617                 0.00    423.74     80.74
  6618                 0.00    423.79     75.79
  662                  0.00    428.47    100.47
  6620                 0.00    420.59    112.59
  6621                 0.00    422.06     94.06
  6622                 0.00    422.54     85.54
  6623                 0.00    423.03     72.03
  6624                 0.00    423.12     71.12
  6625                 0.00    386.55     74.55
  6626                 0.00    422.80    101.80
  6627                 0.00    423.35    102.35
  6628                 0.00    428.23     89.23
  6629                 0.00    428.23     88.23
  663                  0.00    428.21     87.21
  6630                 0.00    427.89     88.09
  6632                 0.00    428.36     88.36
  6633                 0.00    428.79     66.15
  6634                 0.00    428.82     57.82
  6635                 0.00    428.82     76.82
  6636                 0.00    428.82     72.82
  6637                 0.00    428.78     61.78
  6639                 0.00    426.43     66.43
  664                  0.00    428.14     80.14
  6640                 0.00    426.41     66.41
  6641                 0.00    426.68     68.00
  6642                 0.00    426.68     70.68
  6643                 0.00    427.48     75.48
  6644                 0.00    427.64     75.64
  6645                 0.00    427.72     77.72
  6646                 0.00    427.12     80.10
  6648                 0.00    427.27     81.26
  6649                 0.00    428.11     89.11
  665                  0.00    428.11     83.11
  666                  0.00    428.29     88.29
  6665                 0.00    428.24     63.10
  6666                 0.00    428.68     61.02
  667                  0.00    427.62     75.62
  668                  0.00    423.35     93.35
  669                  0.00    428.23     83.23
  1                   85.00    428.61     98.61
  10                  65.00    427.10     75.10
  100                  0.00    426.68     71.68
  100B                 0.00    426.41     68.41
  101                 97.00    425.87     72.87
  103                  0.00    427.88     88.88
  104                  0.00    427.88     88.88
  105                104.00    426.12     71.12
  106                  0.00    426.15     71.15
  107                  0.00    423.72     84.72
  108                 55.00    422.97     84.41
  109                  0.00    423.55     86.55
  11B                  0.00    428.09     85.09
  110                  0.00    423.78     77.78
  111                  0.00    423.78     85.00
  112                  0.00    423.78     81.78
  113                  0.00    423.76    100.76
  114                  0.00    423.74     75.74
  115                  0.00    423.74     77.74
  116                  0.00    423.74     78.74
  117                  0.00    423.74     80.74
  118                  0.00    423.74     84.74
  119                  0.00    423.74    100.93
  12                 137.00    427.97     97.63
  121                  0.00    423.75     74.95
  122                  0.00    423.74     75.84
  123                  0.00    423.74     77.74
  125                  0.00    423.74     72.74
  126                 66.00    423.64     75.64
  127                  0.00    423.64     80.31
  128                  0.00    423.48     61.48
  129                  0.00    423.43     67.43
  130                  0.00    423.38     82.30
  130B                 0.00    423.41     70.41
  132                  0.00    421.36     88.36
  134                  0.00    423.35    102.35
  135                  0.00    423.35    107.35
  137                  0.00    423.35    114.35
  139                  0.00    423.20     63.20
  14                   0.00    427.88     89.88
  140                 57.00    423.20     72.20
  141                  0.00    423.20     71.20
  142                  0.00    423.20     62.20
  143                 63.00    418.42     77.45
  144                  0.00    423.46     64.46
  146                 64.00    422.90     76.90
  147                  0.00    422.80    101.80
  148                  0.00    422.89     89.89
  149                  0.00    386.55     73.34
  15                   0.00    427.91     92.91
  150                 44.00    386.25     78.18
  151                  0.00    385.99     80.75
  152                 70.00    384.00     73.98
  153                  0.00    384.67     74.67
  154                 51.00    421.83     96.83
  157                 60.00    419.33    116.33
  158A                69.00    410.35     89.35
  158B                69.00    410.33     89.33
  16B                  0.00    427.91     93.91
  160                  0.00    428.77     61.77
  162                  0.00    428.73     60.73
  163                  0.00    428.68     54.68
  164                 58.00    428.57     68.91
  165                  0.00    428.38     67.08
  166                  0.00    428.38     67.37
  167                 98.00    428.07     57.43
  169                  0.00    428.55     62.05
  17A                  0.00    427.91     92.91
  170                 83.00    428.80     69.80
  17B                  0.00    427.91     92.91
  171                  0.00    428.82     76.82
  172                  0.00    428.82     88.82
  18B                  0.00    427.91    102.91
  19                   0.00    428.79     70.79
  2                    0.00    428.50    102.50
  20                   0.00    428.91     64.91
  2002                 0.00    428.23     78.23
  2003                 0.00    428.23     78.23
  21                   0.00    423.95     62.35
  22                   0.00    423.95     62.35
  222                  0.00    423.90     73.90
  24                   0.00    423.87     79.87
  25                   0.00    423.83     78.83
  26                   0.00    423.79     75.79
  27                   0.00    423.79     73.79
  28                   0.00    423.72     73.72
  29                   0.00    423.52     67.52
  3                    0.00    428.36     88.01
  30                   0.00    423.50     62.50
  3002                 0.00    428.91     42.91
  3004                 0.00    428.91     42.91
  3005                 0.00    428.91     42.91
  3008                 0.00    428.91     43.91
  3012                 0.00    428.91     58.18
  3013                 0.00    428.91     63.98
  3016                 0.00    428.91     63.91
  3017                 0.00    428.91     46.91
  3018                 0.00    428.85     51.85
  3019                 0.00    428.91     59.52
  3020                 0.00    428.91     60.80
  3024                 0.00    428.91     63.97
  31                   0.00    423.25     65.46
  3152                 0.00    428.91     62.71
  32                   0.00    423.35     65.35
  34                   0.00    423.03     72.01
  35                   0.00    422.54     85.54
  36                   0.00    422.06     94.06
  39                   0.00    421.38    108.38
  41                   0.00    420.35    113.35
  46                   0.00    428.85     52.85
  47                   0.00    428.55     70.37
  48                   0.00    428.78     84.78
  49                   0.00    428.78     76.78
  5                    0.00    428.28     81.28
  52                   0.00    428.78     77.78
  53                 143.00    425.70     69.70
  54                   0.00    428.72     83.72
  55                   0.00    427.60     97.60
  56                   0.00    427.11     93.11
  58                 131.00    422.81     89.81
  59                 152.00    419.55     90.55
  6                   60.00    427.43     75.43
  60                   0.00    428.36     83.36
  61                   0.00    428.36     89.36
  62                  82.00    424.82     70.82
  64                   0.00    428.42     97.42
  65                   0.00    428.36     88.36
  66                  77.00    428.36     89.36
  67                   0.00    428.32     96.32
  68                   0.00    427.89     88.89
  69                  59.00    427.10     76.10
  7                    0.00    428.17     75.17
  70                   0.00    428.23     88.23
  71                  83.00    426.56     89.56
  72                  96.00    427.42     71.42
  73                   0.00    427.45     72.45
  77                   0.00    427.42     71.42
  78                   0.00    427.42     87.28
  79                   0.00    428.17     75.17
  8                    0.00    427.72     77.72
  80                   0.00    428.11     79.12
  81                   0.00    427.27     68.27
  82                  91.00    426.72     68.72
  85                   0.00    428.23     89.23
  86                   0.00    428.23     91.23
  87                 122.00    427.09     67.09
  88                   0.00    426.98     73.98
  89                  89.00    426.75     59.75
  90                   0.00    426.68     70.68
  91                 196.00    425.93     53.93
  92                  58.00    426.27     66.27
  91B                  0.00    426.32     66.32
  94                   0.00    428.11     89.11
  95                   0.00    428.11     85.11
  97                   0.00    428.11     97.11
  99                 148.00    424.02     74.02
  74                   0.00    427.41     68.70
  1074                 0.00    427.41     69.41
  11A                  0.00    428.11     85.11
  1011                 0.00    428.11     85.11
  4                    0.00    422.55    110.55
  9                    0.00    420.59    110.59
  0                -2314.00    429.00      0.00  Reservoir
  balsa             -668.00    423.95     -0.00  Reservoir
   
   
  Link Results:
  ----------------------------------------------
                       Flow  Velocity  Headloss
  Link                 m3/h       m/s    /1000m
  ----------------------------------------------
  TU1                 58.00      0.63      2.02
  TU10               104.00      1.12      5.69
  TU100              142.00      0.31      0.22
  TU101              219.00      0.31      0.16
  TU102                0.00      0.00      0.00
  TU103              219.00      0.31      0.16
  TU104              219.00      0.31      0.16
  TU105             1345.00      0.59      0.26
  TU106             1345.00      0.59      0.26
  TU107                0.00      0.00      0.00
  TU108             1345.00      0.59      0.26
  TU109             1564.00      0.68      0.34
  TU11               201.00      0.92      2.36
  TU110             1564.00      0.68      0.34
  TU111              152.00      2.00     18.49
  TU112              283.00      2.07     13.87
  TU113              283.00      1.50      6.37
  TU114              283.00      1.50      6.37
  TU115             1932.00      0.68      0.30
  TU116             1932.00      0.68      0.30
  TU117              143.00      1.54     10.20
  TU118                0.00      0.00      0.00
  TU119             1932.00      0.68      0.30
  TU12                 0.00      0.00      0.00
  TU120             2075.00      0.73      0.34
  TU121                0.00      0.00      0.00
  TU122                0.00      0.00      0.00
  TU123               -0.00      0.00      0.00
  TU124                0.00      0.00      0.00
  TU125               -0.00      0.00      0.00
  TU126               -0.00      0.00      0.00
  TU127               -0.00      0.00      0.00
  TU128               98.00      0.43      0.57
  TU129               98.00      0.43      0.57
  TU13                 0.00      0.00      0.00
  TU130               98.00      0.43      0.57
  TU131               98.00      0.43      0.57
  TU132                0.00      0.00      0.00
  TU133               98.00      0.43      0.57
  TU134               -0.00      0.00      0.00
  TU135              156.00      0.34      0.26
  TU136              156.00      0.34      0.26
  TU137              156.00      0.22      0.09
  TU138              239.00      0.34      0.19
  TU139              239.00      0.23      0.08
  TU14               201.00      0.44      0.41
  TU140              239.00      0.23      0.08
  TU141               82.00      1.38     10.83
  TU142              178.00      0.48      0.53
  TU143              196.00      0.85      2.00
  TU144               -0.00      0.00      0.00
  TU145               58.00      0.40      0.67
  TU146               58.00      0.25      0.22
  TU147              254.00      0.69      1.01
  TU148               -0.00      0.00      0.00
  TU149               -0.00      0.00      0.00
  TU15                -0.00      0.00      0.00
  TU150               -0.00      0.00      0.00
  TU151              254.00      0.36      0.21
  TU152              148.00      1.69     12.46
  TU15301            613.00      0.87      1.06
  TU15302            613.00      0.87      1.06
  TU1074               0.00      0.00      0.00
  TU154              613.00      0.60      0.44
  TU155               65.00      1.09      7.08
  TU156              678.00      0.67      0.52
  TU157              856.00      0.84      0.80
  TU158               60.00      1.07      7.01
  TU159              916.00      0.90      0.91
  TU16              2314.00      0.42      0.08
  TU160                0.00      0.00      0.00
  TU161              916.00      0.90      0.91
  TU162              429.00      0.31      0.11
  TU163              429.00      0.31      0.11
  TU164              429.00      0.31      0.11
  TU166               -0.00      0.00      0.00
  TU167               91.00      1.20      7.20
  TU168               91.00      1.20      7.20
  TU169               91.00      0.77      2.44
  TU17                55.00      0.98      5.98
  TU170               91.00      0.42      0.56
  TU171              338.00      0.24      0.07
  TU17201              0.00      0.00      0.00
  TU17202              0.00      0.00      0.00
  TU1011A             -0.00      0.00      0.00
  TU173               -0.00      0.00      0.00
  TU174               -0.00      0.00      0.00
  TU175               -0.00      0.00      0.00
  TU176              338.00      0.33      0.15
  TU177              338.00      0.33      0.15
  TU178              201.00      0.20      0.06
  TU179                0.00      0.00      0.00
  TU18                55.00      0.63      2.05
  TU180                0.00      0.00      0.00
  TU181                0.00      0.00      0.00
  TU182                0.00      0.00      0.00
  TU183                0.00      0.00      0.00
  TU184                0.00      0.00      0.00
  TU185               66.00      0.15      0.05
  TU186              156.00      0.42      0.42
  TU187              156.00      0.34      0.26
  TU188              613.00      0.44      0.21
  TU189              613.00      0.44      0.21
  TU19                -0.00      0.00      0.00
  TU190               70.00      0.92      4.46
  TU191               -0.00      0.00      0.00
  TU192                0.00      0.00      0.00
  TU193                0.00      0.00      0.00
  TU194               -0.00      0.00      0.00
  TU195                0.00      0.00      0.00
  TU196                0.00      0.00      0.00
  TU197               -0.00      0.00      0.00
  TU198                0.00      0.00      0.00
  TU199                0.00      0.00      0.00
  TU2                  0.00      0.00      0.00
  TU20                55.00      0.40      0.70
  TU200               -0.00      0.00      0.00
  TU201                0.00      0.00      0.00
  TU203                0.00      0.00      0.00
  TU204                0.00      0.00      0.00
  TU205                0.00      0.00      0.00
  TU21                70.00      0.59      1.52
  TU22               668.00      0.37      0.13
  TU23               668.00      0.37      0.13
  TU24               668.00      0.37      0.13
  TU25               668.00      0.37      0.12
  TU26               547.00      0.54      0.35
  TU27               547.00      0.54      0.35
  TU28               547.00      0.54      0.35
  TU29               547.00      0.54      0.35
  TU3                  0.00      0.00      0.00
  TU30                 0.00      0.00      0.00
  TU31                -0.00      0.00      0.00
  TU32                 0.00      0.00      0.00
  TU33                 0.00      0.00      0.00
  TU34                 0.00      0.00      0.00
  TU35                 0.00      0.00      0.00
  TU36                 0.00      0.00      0.00
  TU37                 0.00      0.00      0.00
  TU38                 0.00      0.00      0.00
  TU39                -0.00      0.00      0.00
  TU4                491.00      0.69      0.70
  TU40                66.00      0.48      0.97
  TU41                66.00      0.15      0.06
  TU42                 0.00      0.00      0.00
  TU43                66.00      0.09      0.02
  TU44                66.00      0.09      0.02
  TU45                66.00      0.09      0.02
  TU46                66.00      0.09      0.02
  TU47                -0.00      0.00      0.00
  TU48               138.00      1.81     15.47
  TU49               138.00      1.16      5.21
  TU5                491.00      0.69      0.70
  TU50                60.00      1.24     10.02
  TU52               198.00      0.65      1.05
  TU53               249.00      0.82      1.59
  TU54                 0.00      0.00      0.00
  TU55               249.00      0.82      1.59
  TU56                 0.00      0.00      0.00
  TU57               249.00      0.71      1.10
  TU58                 0.00      0.00      0.00
  TU59               249.00      0.71      1.10
  TU6                 66.00      0.09      0.02
  TU61                 0.00      0.00      0.00
  TU62               114.00      0.61      1.21
  TU63                 0.00      0.00      0.00
  TU65                 0.00      0.00      0.00
  TU66               114.00      0.38      0.39
  TU67               114.00      0.32      0.27
  TU68               178.00      0.51      0.60
  TU69               427.00      0.60      0.54
  TU7                  0.00      0.00      0.00
  TU70               427.00      0.60      0.54
  TU71               427.00      0.60      0.54
  TU72               120.00      0.27      0.16
  TU73               120.00      0.27      0.16
  TU74               120.00      0.27      0.16
  TU75               120.00      0.27      0.16
  TU76               120.00      0.27      0.16
  TU77               120.00      0.27      0.16
  TU78                 0.00      0.00      0.00
  TU79                 0.00      0.00      0.00
  TU8                 97.00      1.05      5.01
  TU80                 0.00      0.00      0.00
  TU81                 0.00      0.00      0.00
  TU82                63.00      1.12      7.66
  TU83                63.00      0.83      3.68
  TU84                 0.00      0.00      0.00
  TU85                 0.00      0.00      0.00
  TU86                 0.00      0.00      0.00
  TU87                57.00      0.30      0.35
  TU88               120.00      0.27      0.16
  TU89                 0.00      0.00      0.00
  TU9                  0.00      0.00      0.00
  TU90                 0.00      0.00      0.00
  TU91                -0.00      0.00      0.00
  TU92                 0.00      0.00      0.00
  TU93                 0.00      0.00      0.00
  TU94                83.00      0.95      4.32
  TU95                83.00      0.24      0.15
  TU96                 0.00      0.00      0.00
  TU97                59.00      1.05      6.80
  TU98                59.00      0.67      2.32
  TU99               142.00      0.31      0.22
  TU4000              69.00      0.91      4.35
  TU60                70.00      1.44     13.28
  TU64               114.00      0.61      1.21
  TU51               198.00      1.05      3.30
  2                  114.00      2.35     36.00
  3                  198.00      4.08      0.00
   
  Analysis ended Fri Sep  8 13:07:10 2023
