  Page 1                                    Fri Sep  8 13:26:07 2023

  ******************************************************************
  *                           E P A N E T                          *
  *                   Hydraulic and Water Quality                  *
  *                   Analysis for Pipe Networks                   *
  *                         Version 2.2                            *
  ******************************************************************
  
  Analysis begun Fri Sep  8 13:26:07 2023

   
  Node Results:
  ----------------------------------------------
                     Demand      Head  Pressure
  Node                 m3/h         m         m
  ----------------------------------------------
  3661                 0.00    428.97     50.83
  482                  0.00    428.81     82.81
  661                  0.00    424.03     94.03
  6610                 0.00    428.63     68.63
  6611                 0.00    428.27     93.27
  6612                 0.00    428.63     66.26
  6613                 0.00    428.22     73.22
  6615                 0.00    424.43     85.43
  6616                 0.00    424.33     63.33
  6617                 0.00    424.06     81.06
  6618                 0.00    424.52     76.52
  662                  0.00    428.83    100.83
  6620                 0.00    424.25    116.25
  6621                 0.00    424.25     96.25
  6622                 0.00    424.25     87.25
  6623                 0.00    424.25     73.25
  6624                 0.00    424.25     72.25
  6625                 0.00    387.19     75.19
  6626                 0.00    423.79    102.79
  6627                 0.00    423.66    102.66
  6628                 0.00    427.41     88.41
  6629                 0.00    428.77     88.77
  663                  0.00    428.70     87.70
  6630                 0.00    428.80     89.00
  6632                 0.00    428.82     88.82
  6633                 0.00    428.94     66.30
  6634                 0.00    428.95     57.95
  6635                 0.00    428.87     76.87
  6636                 0.00    428.87     72.87
  6637                 0.00    428.81     61.81
  6639                 0.00    428.63     68.63
  664                  0.00    428.51     80.51
  6640                 0.00    428.63     68.63
  6641                 0.00    428.63     69.95
  6642                 0.00    428.63     72.63
  6643                 0.00    428.65     76.65
  6644                 0.00    428.66     76.66
  6645                 0.00    428.67     78.67
  6646                 0.00    427.78     80.76
  6648                 0.00    427.78     81.77
  6649                 0.00    427.73     88.73
  665                  0.00    428.43     83.43
  666                  0.00    428.80     88.80
  6665                 0.00    427.94     62.80
  6666                 0.00    428.63     60.97
  667                  0.00    428.66     76.66
  668                  0.00    424.03     94.03
  669                  0.00    428.75     83.75
  1                    0.00    428.88     98.88
  10                  76.00    428.15     76.15
  100                  0.00    428.63     73.63
  100B                 0.00    428.63     70.63
  101                  0.00    428.22     75.22
  103                  0.00    425.79     86.79
  104                166.00    425.60     86.60
  105                  0.00    428.22     73.22
  106                  0.00    428.22     73.22
  107                  0.00    424.43     85.43
  108                 58.00    423.61     85.05
  109                  0.00    424.25     87.25
  11B                 97.00    428.41     85.41
  110                  0.00    424.51     78.51
  111                  0.00    424.48     85.70
  112                  0.00    424.49     82.49
  113                  0.00    424.43    101.43
  114                  0.00    424.31     76.31
  115                  0.00    424.20     78.20
  116                  0.00    424.27     79.27
  117                 81.00    423.95     80.95
  118                  0.00    424.06     85.06
  119                  0.00    424.06    101.25
  12                   0.00    428.35     98.01
  121                  0.00    424.36     75.56
  122                  0.00    424.27     76.37
  123                  0.00    424.27     78.27
  125                  0.00    424.35     73.35
  126                 61.00    424.25     76.25
  127                  0.00    424.25     80.92
  128                 66.00    424.32     62.32
  129                  0.00    424.19     68.19
  130                  0.00    424.10     83.02
  130B                 0.00    424.16     71.16
  132                 54.00    422.52     89.52
  134                  0.00    423.66    102.66
  135                 61.00    423.01    107.01
  137                  0.00    423.01    114.01
  139                 70.00    423.55     63.55
  14                  71.00    428.22     90.22
  140                  0.00    423.81     72.81
  141                  0.00    423.79     71.79
  142                  0.00    423.55     62.55
  143                  0.00    422.52     81.55
  144                  0.00    424.26     65.26
  146                  0.00    424.02     78.02
  147                  0.00    423.79    102.79
  148                  0.00    423.99     90.99
  149                  0.00    387.19     73.98
  15                   0.00    428.27     93.27
  150                108.00    386.49     78.42
  151                  0.00    386.21     80.97
  152                 74.00    384.00     73.98
  153                  0.00    384.75     74.75
  154                  0.00    424.25     99.25
  157                  0.00    424.25    121.25
  158A                 0.00    424.25    103.25
  158B                 0.00    424.25    103.25
  16B                  0.00    428.27     94.27
  160                  0.00    428.80     61.80
  162                  0.00    428.72     60.72
  163                  0.00    428.63     54.63
  164                 58.00    428.43     68.77
  165                 66.00    427.94     66.64
  166                 96.00    427.94     66.93
  167                  0.00    427.94     57.30
  169                  0.00    428.36     61.86
  17A                  0.00    428.27     93.27
  170                  0.00    428.84     69.84
  17B                  0.00    428.27     93.27
  171                  0.00    428.87     76.87
  172                  0.00    428.87     88.87
  18B                  0.00    428.27    103.27
  19                   0.00    428.94     70.94
  2                    0.00    428.84    102.84
  20                   0.00    428.97     64.97
  2002                 0.00    428.75     78.75
  2003                 0.00    428.75     78.75
  21                  64.00    424.68     63.08
  22                   0.00    424.67     63.07
  222                  0.00    424.63     74.63
  24                   0.00    424.60     80.60
  25                   0.00    424.56     79.56
  26                   0.00    424.52     76.52
  27                   0.00    424.53     74.53
  28                   0.00    424.48     74.48
  29                   0.00    424.35     68.35
  3                    0.00    428.77     88.42
  30                   0.00    424.34     63.34
  3002                 0.00    428.97     42.97
  3004                 0.00    428.97     42.97
  3005                 0.00    428.97     42.97
  3008                 0.00    428.97     43.97
  3012                 0.00    428.97     58.24
  3013                 0.00    428.97     64.04
  3016                 0.00    428.97     63.97
  3017                 0.00    428.97     46.97
  3018                73.00    428.63     51.63
  3019                 0.00    428.97     59.58
  3020                 0.00    428.97     60.86
  3024                 0.00    428.97     64.03
  31                   0.00    424.28     66.49
  3152                 0.00    428.97     62.77
  32                   0.00    424.30     66.30
  34                   0.00    424.25     73.23
  35                   0.00    424.25     87.25
  36                   0.00    424.25     96.25
  39                   0.00    424.25    111.25
  41                   0.00    424.25    117.25
  46                   0.00    428.89     52.89
  47                   0.00    428.36     70.18
  48                   0.00    428.81     84.81
  49                   0.00    428.81     76.81
  5                    0.00    428.73     81.73
  52                   0.00    428.81     77.81
  53                   0.00    428.95     72.95
  54                   0.00    428.92     83.92
  55                   0.00    428.88     98.88
  56                   0.00    428.88     94.88
  58                   0.00    428.88     95.88
  59                   0.00    428.88     99.88
  6                    0.00    428.66     76.66
  60                   0.00    428.77     83.77
  61                   0.00    428.77     89.77
  62                   0.00    428.66     74.66
  64                   0.00    428.82     97.82
  65                   0.00    428.82     88.82
  66                   0.00    428.82     89.82
  67                   0.00    428.81     96.81
  68                   0.00    428.80     89.80
  69                   0.00    428.80     77.80
  7                    0.00    428.59     75.59
  70                   0.00    428.66     88.66
  71                   0.00    428.77     91.77
  72                   0.00    428.66     72.66
  73                   0.00    428.65     73.65
  77                   0.00    428.66     72.66
  78                   0.00    428.66     88.52
  79                   0.00    428.59     75.59
  8                    0.00    428.67     78.67
  80                 105.00    428.42     79.42
  81                  78.00    425.64     66.64
  82                   0.00    427.78     69.78
  85                  58.00    427.15     88.15
  86                   0.00    427.41     90.41
  87                 115.00    428.63     68.63
  88                   0.00    428.63     75.63
  89                   0.00    428.63     61.63
  90                   0.00    428.63     72.63
  91                   0.00    428.63     56.63
  92                   0.00    428.63     68.63
  91B                  0.00    428.63     68.63
  94                  77.00    427.11     88.11
  95                   0.00    427.03     84.03
  97                 139.00    420.25     89.25
  99                   0.00    428.63     78.63
  74                   0.00    428.64     69.93
  1074                 0.00    428.64     70.64
  11A                  0.00    426.56     83.56
  1011                 0.00    426.56     83.56
  4                    0.00    423.19    111.19
  9                    0.00    424.25    114.25
  0                -1275.00    429.00      0.00  Reservoir
  balsa             -697.00    424.68      0.00  Reservoir
   
   
  Link Results:
  ----------------------------------------------
                       Flow  Velocity  Headloss
  Link                 m3/h       m/s    /1000m
  ----------------------------------------------
  TU1                 -0.00      0.00      0.00
  TU10                 0.00      0.00      0.00
  TU100               58.00      0.13      0.04
  TU101               58.00      0.08      0.01
  TU102                0.00      0.00      0.00
  TU103               58.00      0.08      0.02
  TU104               58.00      0.08      0.01
  TU105              924.00      0.40      0.13
  TU106              924.00      0.40      0.13
  TU107                0.00      0.00      0.00
  TU108              924.00      0.40      0.13
  TU109              982.00      0.43      0.14
  TU11                -0.00      0.00      0.00
  TU110              982.00      0.43      0.14
  TU111               -0.00      0.00      0.00
  TU112               -0.00      0.00      0.00
  TU113                0.00      0.00      0.00
  TU114                0.00      0.00      0.00
  TU115              982.00      0.35      0.09
  TU116              982.00      0.35      0.09
  TU117               -0.00      0.00      0.00
  TU118                0.00      0.00      0.00
  TU119              982.00      0.35      0.09
  TU12               166.00      1.90     15.40
  TU120              982.00      0.35      0.09
  TU121               -0.00      0.00      0.00
  TU122                0.00      0.00      0.00
  TU123               -0.00      0.00      0.00
  TU124                0.00      0.00      0.00
  TU125               -0.00      0.00      0.00
  TU126               -0.00      0.00      0.00
  TU127               -0.00      0.00      0.00
  TU128                0.00      0.00      0.00
  TU129                0.00      0.00      0.00
  TU13               166.00      1.21      5.19
  TU130               66.00      0.29      0.28
  TU131              162.00      0.71      1.41
  TU132                0.00      0.00      0.00
  TU133              162.00      0.71      1.41
  TU134               -0.00      0.00      0.00
  TU135              220.00      0.49      0.48
  TU136              220.00      0.49      0.48
  TU137              220.00      0.31      0.16
  TU138              220.00      0.31      0.16
  TU139              220.00      0.22      0.07
  TU14               237.00      0.52      0.55
  TU140              293.00      0.29      0.11
  TU141                0.00      0.00      0.00
  TU142                0.00      0.00      0.00
  TU143               -0.00      0.00      0.00
  TU144               -0.00      0.00      0.00
  TU145               -0.00      0.00      0.00
  TU146               -0.00      0.00      0.00
  TU147               -0.00      0.00      0.00
  TU148               -0.00      0.00      0.00
  TU149               -0.00      0.00      0.00
  TU15                -0.00      0.00      0.00
  TU150               -0.00      0.00      0.00
  TU151               -0.00      0.00      0.00
  TU152               -0.00      0.00      0.00
  TU15301            115.00      0.16      0.05
  TU15302            115.00      0.16      0.05
  TU1074               0.00      0.00      0.00
  TU154              115.00      0.11      0.02
  TU155               76.00      1.28      9.42
  TU156              191.00      0.19      0.05
  TU157              191.00      0.19      0.05
  TU158                0.00      0.00      0.00
  TU159              191.00      0.19      0.05
  TU16              1275.00      0.23      0.03
  TU160                0.00      0.00      0.00
  TU161              191.00      0.19      0.05
  TU162              733.00      0.53      0.29
  TU163              733.00      0.53      0.29
  TU164              733.00      0.53      0.29
  TU166               78.00      1.61     16.20
  TU167               -0.00      0.00      0.00
  TU168                0.00      0.00      0.00
  TU169               78.00      0.66      1.84
  TU17                58.00      1.03      6.59
  TU170              183.00      0.84      1.99
  TU171              550.00      0.40      0.17
  TU17201            139.00      1.83     15.67
  TU17202            139.00      1.83     15.67
  TU1011A             -0.00      0.00      0.00
  TU173              139.00      1.02      3.75
  TU174               77.00      1.37     11.06
  TU175              216.00      0.99      2.70
  TU176              237.00      0.23      0.08
  TU177              334.00      0.33      0.14
  TU178              237.00      0.23      0.08
  TU179                0.00      0.00      0.00
  TU18                58.00      0.66      2.25
  TU180                0.00      0.00      0.00
  TU181                0.00      0.00      0.00
  TU182                0.00      0.00      0.00
  TU183                0.00      0.00      0.00
  TU184                0.00      0.00      0.00
  TU185              142.00      0.31      0.22
  TU186              220.00      0.59      0.78
  TU187              220.00      0.49      0.48
  TU188              575.00      0.42      0.18
  TU189              575.00      0.42      0.18
  TU19                 0.00      0.00      0.00
  TU190               74.00      0.97      4.94
  TU191                0.00      0.00      0.00
  TU192                0.00      0.00      0.00
  TU193                0.00      0.00      0.00
  TU194               -0.00      0.00      0.00
  TU195                0.00      0.00      0.00
  TU196                0.00      0.00      0.00
  TU197               -0.00      0.00      0.00
  TU198                0.00      0.00      0.00
  TU199                0.00      0.00      0.00
  TU2                  0.00      0.00      0.00
  TU20                58.00      0.42      0.77
  TU200               -0.00      0.00      0.00
  TU201                0.00      0.00      0.00
  TU203               73.00      1.23      8.75
  TU204                0.00      0.00      0.00
  TU205                0.00      0.00      0.00
  TU21                74.00      0.62      1.68
  TU22               633.00      0.35      0.12
  TU23               633.00      0.35      0.12
  TU24               633.00      0.35      0.12
  TU25               697.00      0.39      0.12
  TU26               433.00      0.43      0.23
  TU27               433.00      0.43      0.23
  TU28               433.00      0.43      0.23
  TU29               433.00      0.43      0.23
  TU3                  0.00      0.00      0.00
  TU30                 0.00      0.00      0.00
  TU31                 0.00      0.00      0.00
  TU32                81.00      0.92      4.13
  TU33                81.00      0.37      0.45
  TU34                81.00      0.37      0.45
  TU35                 0.00      0.00      0.00
  TU36                 0.00      0.00      0.00
  TU37                81.00      0.23      0.14
  TU38                81.00      0.23      0.14
  TU39                -0.00      0.00      0.00
  TU4                 -0.00      0.00      0.00
  TU40                61.00      0.45      0.84
  TU41               142.00      0.31      0.22
  TU42                 0.00      0.00      0.00
  TU43               142.00      0.20      0.07
  TU44               142.00      0.20      0.07
  TU45               142.00      0.20      0.07
  TU46               142.00      0.20      0.07
  TU47                -0.00      0.00      0.00
  TU48                 0.00      0.00      0.00
  TU49                 0.00      0.00      0.00
  TU5                  0.00      0.00      0.00
  TU50                 0.00      0.00      0.00
  TU52                 0.00      0.00      0.00
  TU53                 0.00      0.00      0.00
  TU54                 0.00      0.00      0.00
  TU55                 0.00      0.00      0.00
  TU56                 0.00      0.00      0.00
  TU57                 0.00      0.00      0.00
  TU58                 0.00      0.00      0.00
  TU59                 0.00      0.00      0.00
  TU6                142.00      0.20      0.07
  TU61                -0.00      0.00      0.00
  TU62               182.00      0.97      2.83
  TU63                 0.00      0.00      0.00
  TU65                 0.00      0.00      0.00
  TU66               182.00      0.60      0.90
  TU67               182.00      0.52      0.62
  TU68               182.00      0.52      0.62
  TU69               182.00      0.26      0.12
  TU7                  0.00      0.00      0.00
  TU70               182.00      0.26      0.12
  TU71               182.00      0.26      0.12
  TU72               185.00      0.41      0.35
  TU73               185.00      0.41      0.35
  TU74               185.00      0.41      0.35
  TU75               185.00      0.41      0.35
  TU76               185.00      0.41      0.35
  TU77               251.00      0.55      0.61
  TU78                 0.00      0.00      0.00
  TU79                61.00      0.80      3.47
  TU8                  0.00      0.00      0.00
  TU80                 0.00      0.00      0.00
  TU81                61.00      0.51      1.18
  TU82                -0.00      0.00      0.00
  TU83                54.00      0.71      2.78
  TU84                 0.00      0.00      0.00
  TU85                70.00      0.51      1.08
  TU86                70.00      0.32      0.35
  TU87                70.00      0.37      0.50
  TU88               124.00      0.27      0.17
  TU89                58.00      1.03      6.59
  TU9                  0.00      0.00      0.00
  TU90                 0.00      0.00      0.00
  TU91                58.00      0.66      2.25
  TU92                58.00      0.27      0.25
  TU93                58.00      0.16      0.08
  TU94                 0.00      0.00      0.00
  TU95                58.00      0.16      0.08
  TU96                 0.00      0.00      0.00
  TU97                 0.00      0.00      0.00
  TU98                 0.00      0.00      0.00
  TU99                58.00      0.13      0.04
  TU4000               0.00      0.00      0.00
  TU60                74.00      1.53     14.71
  TU64               182.00      0.97      2.83
  TU51                 0.00      0.00      0.00
  2                  182.00      3.75     36.00  PBV
  3                    0.00      0.00      0.00  PBV
   
  Analysis ended Fri Sep  8 13:26:07 2023
