  Page 1                                    Fri Sep  8 13:16:32 2023

  ******************************************************************
  *                           E P A N E T                          *
  *                   Hydraulic and Water Quality                  *
  *                   Analysis for Pipe Networks                   *
  *                         Version 2.2                            *
  ******************************************************************
  
  Analysis begun Fri Sep  8 13:16:32 2023

   
  Node Results:
  ----------------------------------------------
                     Demand      Head  Pressure
  Node                 m3/h         m         m
  ----------------------------------------------
  3661                 0.00    428.66     50.52
  482                  0.00    427.82     81.82
  661                  0.00    417.07     87.07
  6610                 0.00    423.79     63.79
  6611                 0.00    420.28     85.28
  6612                 0.00    424.96     62.59
  6613                 0.00    420.84     65.84
  6615                 0.00    420.23     81.23
  6616                 0.00    418.99     57.99
  6617                 0.00    417.75     74.75
  6618                 0.00    419.89     71.89
  662                  0.00    427.28     99.28
  6620                 0.00    418.80    110.80
  6621                 0.00    418.80     90.80
  6622                 0.00    418.80     81.80
  6623                 0.00    418.80     67.80
  6624                 0.00    418.80     66.80
  6625                 0.00    382.15     70.15
  6626                 0.00    418.32     97.32
  6627                 0.00    414.63     93.63
  6628                 0.00    425.62     86.62
  6629                 0.00    426.89     86.89
  663                  0.00    426.22     85.22
  6630                 0.00    426.73     86.93
  6632                 0.00    427.17     87.17
  6633                 0.00    428.33     65.69
  6634                 0.00    428.44     57.44
  6635                 0.00    428.18     76.18
  6636                 0.00    428.18     72.18
  6637                 0.00    428.01     61.01
  6639                 0.00    424.71     64.71
  664                  0.00    425.30     77.30
  6640                 0.00    424.53     64.53
  6641                 0.00    424.85     66.17
  6642                 0.00    424.85     68.85
  6643                 0.00    425.23     73.23
  6644                 0.00    425.43     73.43
  6645                 0.00    425.53     75.53
  6646                 0.00    422.22     75.20
  6648                 0.00    422.40     76.39
  6649                 0.00    424.48     85.48
  665                  0.00    424.82     79.82
  666                  0.00    427.04     87.04
  6665                 0.00    427.06     61.92
  6666                 0.00    427.69     60.03
  667                  0.00    425.40     73.40
  668                  0.00    417.06     87.06
  669                  0.00    426.87     81.87
  1                   62.00    427.80     97.80
  10                  64.00    424.87     72.87
  100                  0.00    424.85     69.85
  100B                 0.00    424.53     66.53
  101                 95.00    420.57     67.57
  103                 52.00    417.76     78.76
  104                169.00    417.57     78.57
  105                  0.00    420.84     65.84
  106                 57.00    420.76     65.76
  107                 84.00    419.88     80.88
  108                  0.00    420.23     81.67
  109                  0.00    420.23     83.23
  11B                150.00    424.55     81.55
  110                 65.00    419.78     73.78
  111                 51.00    419.43     80.65
  112                  0.00    419.61     77.61
  113                  0.00    419.01     96.01
  114                 51.00    418.14     70.14
  115                 56.00    417.88     71.88
  116                  0.00    418.05     73.05
  117                 76.00    417.66     74.66
  118                  0.00    417.75     78.75
  119                  0.00    417.75     94.94
  12                   0.00    423.47     93.13
  121                 63.00    418.37     69.57
  122                  0.00    418.05     70.15
  123                  0.00    418.05     72.05
  125                  0.00    418.31     67.31
  126                 68.00    417.31     69.31
  127                156.00    415.24     71.91
  128                 60.00    418.92     56.92
  129                  0.00    417.89     61.89
  130                127.00    417.29     76.21
  130B                67.00    417.60     64.60
  132                 56.00    410.69     77.69
  134                 59.00    414.35     93.35
  135                 50.00    412.63     96.63
  137                 63.00    408.16     99.16
  139                 64.00    416.65     56.65
  14                  79.00    421.88     83.88
  140                  0.00    416.87     65.87
  141                  0.00    416.85     64.85
  142                  0.00    416.65     55.65
  143                 63.00    407.76     66.79
  144                 85.00    418.40     59.40
  146                  0.00    418.50     72.50
  147                 58.00    418.08     97.08
  148                 60.00    418.46     85.46
  149                  0.00    382.15     68.94
  15                 209.00    419.69     84.69
  150                 91.00    381.95     73.88
  151                  0.00    381.95     76.71
  152                  0.00    381.95     71.93
  153                  0.00    381.95     71.95
  154                  0.00    418.80     93.80
  157                  0.00    418.80    115.80
  158A                 0.00    418.80     97.80
  158B                 0.00    418.80     97.80
  16B                101.00    422.03     88.03
  160                  0.00    427.99     60.99
  162                  0.00    427.85     59.85
  163                 85.00    427.42     53.42
  164                 60.00    427.50     67.84
  165                 61.00    427.06     65.76
  166                 92.00    427.06     66.05
  167                  0.00    427.06     56.42
  169                  0.00    427.44     60.94
  17A                  0.00    419.72     84.72
  170                102.00    428.09     69.09
  17B                175.00    419.16     84.16
  171                  0.00    428.18     76.18
  172                  0.00    428.18     88.18
  18B                222.00    413.28     88.28
  19                   0.00    428.33     70.33
  2                    0.00    427.39    101.39
  20                  89.00    428.66     64.66
  2002                 0.00    426.87     76.87
  2003                 0.00    426.87     76.87
  21                  55.00    421.07     59.47
  22                  70.00    421.06     59.46
  222                 71.00    420.74     70.74
  24                   0.00    420.56     76.56
  25                   0.00    420.29     75.29
  26                   0.00    419.89     71.89
  27                   0.00    420.02     70.02
  28                  56.00    419.76     69.76
  29                  49.00    419.09     63.09
  3                   68.00    426.82     86.47
  30                   0.00    419.02     58.02
  3002                 0.00    428.66     42.66
  3004                 0.00    428.66     42.66
  3005                 0.00    428.66     42.66
  3008                 0.00    428.66     43.66
  3012                 0.00    428.66     57.93
  3013                 0.00    428.66     63.73
  3016               133.00    428.66     63.66
  3017               140.00    428.67     46.67
  3018                68.00    428.05     51.05
  3019                 0.00    428.66     59.27
  3020                 0.00    428.66     60.55
  3024                 0.00    428.66     63.72
  31                  56.00    418.85     61.06
  3152                 0.00    428.66     62.46
  32                   0.00    418.91     60.91
  34                  52.00    418.70     67.68
  35                   0.00    418.80     81.80
  36                   0.00    418.80     90.80
  39                   0.00    418.80    105.80
  41                   0.00    418.80    111.80
  46                 171.00    428.28     52.28
  47                   0.00    427.44     69.26
  48                   0.00    427.74     83.74
  49                   0.00    427.12     75.12
  5                    0.00    426.51     79.51
  52                  69.00    427.09     76.09
  53                 123.00    426.07     70.07
  54                   0.00    428.14     83.14
  55                   0.00    427.35     97.35
  56                  59.00    427.13     93.13
  58                 124.00    426.18     93.18
  59                   0.00    426.18     97.18
  6                    0.00    425.43     73.43
  60                   0.00    426.82     81.82
  61                   0.00    426.82     87.82
  62                 111.00    420.28     66.28
  64                  77.00    427.22     96.22
  65                   0.00    427.17     87.17
  66                   0.00    427.17     88.17
  67                   0.00    427.09     95.09
  68                   0.00    426.73     87.73
  69                  51.00    426.13     75.13
  7                    0.00    425.70     72.70
  70                   0.00    426.78     86.78
  71                  86.00    425.10     88.10
  72                  95.00    424.81     68.81
  73                 173.00    425.20     70.20
  77                 111.00    421.70     65.70
  78                   0.00    424.81     84.67
  79                  48.00    425.69     72.69
  8                   53.00    425.37     75.37
  80                  96.00    425.11     76.11
  81                  69.00    420.70     61.70
  82                 103.00    421.72     63.72
  85                  56.00    425.37     86.37
  86                   0.00    425.62     88.62
  87                 100.00    425.01     65.01
  88                  61.00    420.03     67.03
  89                  79.00    424.88     57.88
  90                   0.00    424.85     68.85
  91                   0.00    424.71     52.71
  92                   0.00    423.79     63.79
  91B                183.00    423.43     63.43
  94                  73.00    423.92     84.92
  95                   0.00    424.26     81.26
  97                   0.00    424.12     93.12
  99                   0.00    424.88     74.88
  74                  73.00    423.18     64.47
  1074                 0.00    425.18     67.18
  11A                 73.00    424.05     81.05
  1011                 0.00    424.12     81.12
  4                    0.00    418.15    106.15
  9                    0.00    418.80    108.80
  0                -4650.00    429.00      0.00  Reservoir
  balsa            -1982.00    421.07     -0.00  Reservoir
   
   
  Link Results:
  ----------------------------------------------
                       Flow  Velocity  Headloss
  Link                 m3/h       m/s    /1000m
  ----------------------------------------------
  TU1                 -0.00      0.00      0.00
  TU10                 0.00      0.00      0.00
  TU100              193.00      0.43      0.38
  TU101              193.00      0.27      0.13
  TU102                0.00      0.00      0.00
  TU103              193.00      0.27      0.13
  TU104              270.00      0.38      0.24
  TU105             2874.00      1.25      1.04
  TU106             2874.00      1.25      1.04
  TU107                0.00      0.00      0.00
  TU108             2942.00      1.28      1.09
  TU109             3212.00      1.40      1.28
  TU11               152.00      0.70      1.42
  TU110             3212.00      1.40      1.28
  TU111                0.00      0.00      0.00
  TU112              124.00      0.91      3.04
  TU113              183.00      0.97      2.86
  TU114              183.00      0.97      2.86
  TU115             3457.00      1.22      0.88
  TU116             3457.00      1.22      0.88
  TU117              123.00      1.33      7.74
  TU118                0.00      0.00      0.00
  TU119             3457.00      1.22      0.88
  TU12               169.00      1.93     15.92
  TU120             3580.00      1.27      0.94
  TU121                0.00      0.00      0.00
  TU122                0.00      0.00      0.00
  TU123               -0.00      0.00      0.00
  TU124               69.00      0.79      3.09
  TU125               69.00      0.50      1.05
  TU126               69.00      0.32      0.34
  TU127               69.00      0.32      0.34
  TU128                0.00      0.00      0.00
  TU129                0.00      0.00      0.00
  TU13               221.00      1.61      8.78
  TU130               61.00      0.27      0.25
  TU131              153.00      0.67      1.27
  TU132                0.00      0.00      0.00
  TU133              153.00      0.67      1.27
  TU134              183.00      1.98     16.08
  TU135              298.00      0.66      0.83
  TU136              298.00      0.66      0.83
  TU137              367.00      0.52      0.41
  TU138              469.00      0.66      0.65
  TU139              469.00      0.46      0.27
  TU14               452.00      1.00      1.78
  TU140              708.00      0.70      0.57
  TU141              111.00      1.87     18.89
  TU142              317.00      0.86      1.51
  TU143               -0.00      0.00      0.00
  TU144               -0.00      0.00      0.00
  TU145              183.00      1.27      5.44
  TU146              183.00      0.80      1.77
  TU147              183.00      0.49      0.56
  TU148               -0.00      0.00      0.00
  TU149               -0.00      0.00      0.00
  TU15                -0.00      0.00      0.00
  TU150               -0.00      0.00      0.00
  TU151              183.00      0.26      0.12
  TU152               -0.00      0.00      0.00
  TU15301            496.00      0.70      0.72
  TU15302            423.00      0.60      0.54
  TU1074              73.00      0.96      4.81
  TU154              669.00      0.66      0.51
  TU155               64.00      1.08      6.88
  TU156              733.00      0.72      0.60
  TU157             1050.00      1.03      1.17
  TU158                0.00      0.00      0.00
  TU159             1050.00      1.03      1.17
  TU16              4650.00      0.84      0.30
  TU160               53.00      0.94      5.59
  TU161             1103.00      1.08      1.28
  TU162             1771.00      1.28      1.45
  TU163             1723.00      1.24      1.38
  TU164             1771.00      1.28      1.45
  TU166               69.00      1.42     12.94
  TU167              103.00      1.35      9.03
  TU168              103.00      1.35      9.03
  TU169              172.00      1.45      7.81
  TU17                 0.00      0.00      0.00
  TU170              268.00      1.23      4.00
  TU171             1455.00      1.05      1.01
  TU17201             73.00      0.96      4.81
  TU17202              0.00      0.00      0.00
  TU1011A             73.00      0.96      4.81
  TU173               73.00      0.53      1.16
  TU174               73.00      1.30     10.03
  TU175              146.00      0.67      1.32
  TU176             1159.00      1.14      1.40
  TU177             1309.00      1.29      1.76
  TU178             1159.00      1.14      1.40
  TU179              606.00      1.72      5.63
  TU18                 0.00      0.00      0.00
  TU180              397.00      1.13      2.58
  TU181              222.00      1.87     12.50
  TU182              397.00      1.82      8.27
  TU183                0.00      0.00      0.00
  TU184                0.00      0.00      0.00
  TU185              470.00      1.04      1.92
  TU186              213.00      0.57      0.73
  TU187              298.00      0.66      0.83
  TU188             1702.00      1.23      1.35
  TU189             1702.00      1.23      1.35
  TU19                84.00      1.49     12.97
  TU190               -0.00      0.00      0.00
  TU191                0.00      0.00      0.00
  TU192                0.00      0.00      0.00
  TU193                0.00      0.00      0.00
  TU194               -0.00      0.00      0.00
  TU195                0.00      0.00      0.00
  TU196                0.00      0.00      0.00
  TU197               -0.00      0.00      0.00
  TU198                0.00      0.00      0.00
  TU199                0.00      0.00      0.00
  TU2                209.00      2.39     23.60
  TU20                84.00      0.61      1.50
  TU200               -0.00      0.00      0.00
  TU201                0.00      0.00      0.00
  TU203               68.00      1.14      7.69
  TU204               89.00      0.04      0.00
  TU205              222.00      0.10      0.01
  TU21                -0.00      0.00      0.00
  TU22              1786.00      0.99      0.77
  TU23              1857.00      1.03      0.83
  TU24              1927.00      1.06      0.89
  TU25              1982.00      1.10      0.87
  TU26              1011.00      0.99      1.09
  TU27              1011.00      0.99      1.09
  TU28              1060.00      1.04      1.19
  TU29              1116.00      1.10      1.31
  TU3                 61.00      1.03      6.31
  TU30                 0.00      0.00      0.00
  TU31                -0.00      0.00      0.00
  TU32                76.00      0.87      3.68
  TU33                76.00      0.35      0.41
  TU34               132.00      0.60      1.10
  TU35                -0.00      0.00      0.00
  TU36                 0.00      0.00      0.00
  TU37               132.00      0.37      0.35
  TU38               183.00      0.52      0.63
  TU39               156.00      1.78     13.73
  TU4                262.00      0.37      0.22
  TU40               224.00      1.64      9.00
  TU41               407.00      0.90      1.47
  TU42                85.00      0.59      1.35
  TU43               521.00      0.74      0.78
  TU44               521.00      0.74      0.78
  TU45               586.00      0.83      0.97
  TU46               586.00      0.83      0.97
  TU47                 0.00      0.00      0.00
  TU48                 0.00      0.00      0.00
  TU49                 0.00      0.00      0.00
  TU5                323.00      0.46      0.33
  TU50                 0.00      0.00      0.00
  TU52                 0.00      0.00      0.00
  TU53                 0.00      0.00      0.00
  TU54                 0.00      0.00      0.00
  TU55                 0.00      0.00      0.00
  TU56                 0.00      0.00      0.00
  TU57                 0.00      0.00      0.00
  TU58                52.00      0.93      5.40
  TU59                52.00      0.15      0.07
  TU6                470.00      0.66      0.65
  TU61                 0.00      0.00      0.00
  TU62                91.00      0.48      0.80
  TU63                 0.00      0.00      0.00
  TU65                58.00      1.20      9.42
  TU66               149.00      0.49      0.63
  TU67               209.00      0.59      0.80
  TU68               209.00      0.59      0.80
  TU69               261.00      0.37      0.22
  TU7                111.00      1.87     18.89
  TU70               317.00      0.45      0.32
  TU71               317.00      0.45      0.32
  TU72               355.00      0.78      1.15
  TU73               482.00      1.07      2.01
  TU74               549.00      1.21      2.55
  TU75               549.00      1.21      2.55
  TU76               634.00      1.40      3.32
  TU77               694.00      1.53      3.93
  TU78                63.00      1.30     10.95
  TU79               113.00      1.49     10.71
  TU8                 95.00      1.03      4.82
  TU80                59.00      1.22      9.71
  TU81               172.00      1.45      7.81
  TU82                63.00      1.12      7.66
  TU83               119.00      1.56     11.77
  TU84                 0.00      0.00      0.00
  TU85                64.00      0.47      0.92
  TU86                64.00      0.29      0.30
  TU87                64.00      0.34      0.43
  TU88               183.00      0.40      0.34
  TU89                56.00      1.00      6.18
  TU9                 57.00      0.96      5.58
  TU90                 0.00      0.00      0.00
  TU91                56.00      0.64      2.11
  TU92                56.00      0.26      0.23
  TU93                56.00      0.16      0.07
  TU94                86.00      0.98      4.61
  TU95               142.00      0.40      0.40
  TU96                 0.00      0.00      0.00
  TU97                51.00      0.91      5.21
  TU98                51.00      0.58      1.79
  TU99               193.00      0.43      0.38
  TU4000               0.00      0.00      0.00
  TU60                 0.00      0.00      0.00
  TU64                91.00      0.48      0.80
  TU51                 0.00      0.00      0.00
  2                   91.00      1.88     36.00
  3                    0.00      0.00      0.00
   
  Analysis ended Fri Sep  8 13:16:32 2023
