  Page 1                                    Fri Sep  8 13:09:40 2023

  ******************************************************************
  *                           E P A N E T                          *
  *                   Hydraulic and Water Quality                  *
  *                   Analysis for Pipe Networks                   *
  *                         Version 2.2                            *
  ******************************************************************
  
  Analysis begun Fri Sep  8 13:09:40 2023

   
  Node Results:
  ----------------------------------------------
                     Demand      Head  Pressure
  Node                 m3/h         m         m
  ----------------------------------------------
  3661                 0.00    428.94     50.80
  482                  0.00    427.95     81.95
  661                  0.00    425.64     95.64
  6610                 0.00    425.72     65.72
  6611                 0.00    427.51     92.51
  6612                 0.00    427.54     65.17
  6613                 0.00    427.74     72.74
  6615                 0.00    425.89     86.89
  6616                 0.00    425.95     64.95
  6617                 0.00    426.15     83.15
  6618                 0.00    426.15     78.15
  662                  0.00    428.59    100.59
  6620                 0.00    425.91    117.91
  6621                 0.00    425.91     97.91
  6622                 0.00    425.91     88.91
  6623                 0.00    425.91     74.91
  6624                 0.00    425.91     73.91
  6625                 0.00    389.88     77.88
  6626                 0.00    425.88    104.88
  6627                 0.00    425.64    104.64
  6628                 0.00    427.93     88.93
  6629                 0.00    428.28     88.28
  663                  0.00    428.33     87.33
  6630                 0.00    428.37     88.57
  6632                 0.00    428.49     88.49
  6633                 0.00    428.87     66.23
  6634                 0.00    428.89     57.89
  6635                 0.00    428.90     76.90
  6636                 0.00    428.90     72.90
  6637                 0.00    428.87     61.87
  6639                 0.00    427.13     67.13
  664                  0.00    428.21     80.21
  6640                 0.00    426.85     66.85
  6641                 0.00    427.34     68.66
  6642                 0.00    427.34     71.34
  6643                 0.00    427.80     75.80
  6644                 0.00    427.95     75.95
  6645                 0.00    428.00     78.00
  6646                 0.00    428.21     81.19
  6648                 0.00    428.21     82.20
  6649                 0.00    428.12     89.12
  665                  0.00    428.12     83.12
  666                  0.00    428.37     88.37
  6665                 0.00    428.87     63.73
  6666                 0.00    428.87     61.21
  667                  0.00    427.93     75.93
  668                  0.00    425.64     95.64
  669                  0.00    428.21     83.21
  1                    0.00    428.74     98.74
  10                   0.00    427.80     75.80
  100                  0.00    427.34     72.34
  100B                 0.00    426.85     68.85
  101                  0.00    427.74     74.74
  103                  0.00    427.74     88.74
  104                  0.00    427.74     88.74
  105                  0.00    427.74     72.74
  106                  0.00    427.74     72.74
  107                 81.00    425.56     86.56
  108                  0.00    425.89     87.33
  109                  0.00    425.89     88.89
  11B                148.00    428.06     85.06
  110                  0.00    426.15     80.15
  111                  0.00    426.15     87.37
  112                  0.00    426.15     84.15
  113                  0.00    426.15    103.15
  114                  0.00    426.15     78.15
  115                  0.00    426.15     80.15
  116                  0.00    426.15     81.15
  117                  0.00    426.15     83.15
  118                  0.00    426.15     87.15
  119                  0.00    426.15    103.34
  12                 138.00    427.87     97.53
  121                  0.00    426.15     77.35
  122                  0.00    426.15     78.25
  123                  0.00    426.15     80.15
  125                  0.00    426.15     75.15
  126                  0.00    426.15     78.15
  127                  0.00    426.15     82.82
  128                  0.00    425.94     63.94
  129                  0.00    425.72     69.72
  130                134.00    425.64     84.56
  130B                74.00    425.67     72.67
  132                  0.00    425.64     92.64
  134                  0.00    425.64    104.64
  135                  0.00    425.64    109.64
  137                  0.00    425.64    116.64
  139                  0.00    425.64     65.64
  14                  92.00    427.74     89.74
  140                  0.00    425.64     74.64
  141                  0.00    425.64     73.64
  142                  0.00    425.64     64.64
  143                  0.00    425.64     84.67
  144                 88.00    425.81     66.81
  146                  0.00    425.88     79.88
  147                  0.00    425.88    104.88
  148                 62.00    425.88     92.88
  149                  0.00    389.88     76.67
  15                   0.00    427.51     92.51
  150                  0.00    389.88     81.81
  151                  0.00    389.88     84.64
  152                  0.00    389.88     79.86
  153                  0.00    389.88     79.88
  154                  0.00    425.91    100.91
  157                  0.00    425.91    122.91
  158A                 0.00    425.91    104.91
  158B                 0.00    425.91    104.91
  16B                  0.00    427.75     93.75
  160                  0.00    428.87     61.87
  162                  0.00    428.87     60.87
  163                  0.00    428.87     54.87
  164                  0.00    428.87     69.21
  165                  0.00    428.87     67.57
  166                  0.00    428.87     67.86
  167                  0.00    428.87     58.23
  169                  0.00    428.87     62.37
  17A                  0.00    427.33     92.33
  170                  0.00    428.89     69.89
  17B                  0.00    427.16     92.16
  171                  0.00    428.90     76.90
  172                  0.00    428.90     88.90
  18B                208.00    421.95     96.95
  19                   0.00    428.87     70.87
  2                    0.00    428.62    102.62
  20                   0.00    428.94     64.94
  2002                 0.00    428.21     78.21
  2003                 0.00    428.21     78.21
  21                   0.00    426.26     64.66
  22                   0.00    426.26     64.66
  222                 59.00    426.22     76.22
  24                   0.00    426.20     82.20
  25                   0.00    426.17     81.17
  26                   0.00    426.15     78.15
  27                   0.00    426.15     76.15
  28                  59.00    426.09     76.09
  29                   0.00    425.97     69.97
  3                   56.00    428.48     88.13
  30                   0.00    425.96     64.96
  3002                 0.00    428.94     42.94
  3004                 0.00    428.94     42.94
  3005                 0.00    428.94     42.94
  3008                 0.00    428.94     43.94
  3012                 0.00    428.94     58.21
  3013                 0.00    428.94     64.01
  3016                 0.00    428.94     63.94
  3017                 0.00    428.94     46.94
  3018                 0.00    428.92     51.92
  3019                 0.00    428.94     59.55
  3020                 0.00    428.94     60.83
  3024                 0.00    428.94     64.00
  31                   0.00    425.93     68.14
  3152                 0.00    428.94     62.74
  32                   0.00    425.94     67.94
  34                  58.00    425.79     74.77
  35                   0.00    425.91     88.91
  36                   0.00    425.91     97.91
  39                   0.00    425.91    112.91
  41                   0.00    425.91    118.91
  46                   0.00    428.92     52.92
  47                   0.00    428.87     70.69
  48                   0.00    427.56     83.56
  49                  86.00    424.59     72.59
  5                    0.00    428.40     81.40
  52                  77.00    424.56     73.56
  53                   0.00    428.89     72.89
  54                   0.00    428.82     83.82
  55                   0.00    428.74     98.74
  56                   0.00    428.74     94.74
  58                   0.00    428.74     95.74
  59                   0.00    428.74     99.74
  6                    0.00    427.95     75.95
  60                   0.00    428.48     83.48
  61                   0.00    428.48     89.48
  62                   0.00    427.86     73.86
  64                   0.00    428.55     97.55
  65                   0.00    428.49     88.49
  66                   0.00    428.49     89.49
  67                 112.00    428.39     96.39
  68                   0.00    428.37     89.37
  69                   0.00    428.37     77.37
  7                    0.00    428.27     75.27
  70                 108.00    427.93     87.93
  71                   0.00    428.28     91.28
  72                 100.00    427.86     71.86
  73                 178.00    427.77     72.77
  77                   0.00    427.86     71.86
  78                   0.00    427.86     87.72
  79                   0.00    428.26     75.26
  8                    0.00    428.00     78.00
  80                   0.00    428.21     79.21
  81                   0.00    428.21     69.21
  82                   0.00    428.21     70.21
  85                   0.00    427.93     88.93
  86                   0.00    427.93     90.93
  87                   0.00    427.61     67.61
  88                   0.00    427.54     74.54
  89                   0.00    427.40     60.40
  90                   0.00    427.34     71.34
  91                   0.00    427.13     55.13
  92                   0.00    425.72     65.72
  91B                231.00    425.17     65.17
  94                   0.00    428.12     89.12
  95                   0.00    428.12     85.12
  97                   0.00    428.12     97.12
  99                 149.00    424.63     74.63
  74                  84.00    425.17     66.46
  1074                 0.00    427.75     69.75
  11A                  0.00    428.12     85.12
  1011                 0.00    428.12     85.12
  4                    0.00    425.88    113.88
  9                    0.00    425.91    115.91
  0                -1767.00    429.00      0.00  Reservoir
  balsa             -615.00    426.26     -0.00  Reservoir
   
   
  Link Results:
  ----------------------------------------------
                       Flow  Velocity  Headloss
  Link                 m3/h       m/s    /1000m
  ----------------------------------------------
  TU1                 -0.00      0.00      0.00
  TU10                 0.00      0.00      0.00
  TU100              220.00      0.49      0.48
  TU101              220.00      0.31      0.16
  TU102                0.00      0.00      0.00
  TU103              220.00      0.31      0.16
  TU104              220.00      0.31      0.16
  TU105             1328.00      0.58      0.25
  TU106             1328.00      0.58      0.25
  TU107                0.00      0.00      0.00
  TU108             1384.00      0.60      0.27
  TU109             1604.00      0.70      0.36
  TU11                -0.00      0.00      0.00
  TU110             1604.00      0.70      0.36
  TU111                0.00      0.00      0.00
  TU112               -0.00      0.00      0.00
  TU113                0.00      0.00      0.00
  TU114                0.00      0.00      0.00
  TU115             1604.00      0.57      0.21
  TU116             1604.00      0.57      0.21
  TU117                0.00      0.00      0.00
  TU118                0.00      0.00      0.00
  TU119             1604.00      0.57      0.21
  TU12                 0.00      0.00      0.00
  TU120             1604.00      0.57      0.21
  TU121                0.00      0.00      0.00
  TU122                0.00      0.00      0.00
  TU123               -0.00      0.00      0.00
  TU124               77.00      0.88      3.77
  TU125              163.00      1.19      5.02
  TU126              163.00      0.75      1.61
  TU127              163.00      0.75      1.61
  TU128                0.00      0.00      0.00
  TU129                0.00      0.00      0.00
  TU13                 0.00      0.00      0.00
  TU130               -0.00      0.00      0.00
  TU131               -0.00      0.00      0.00
  TU132                0.00      0.00      0.00
  TU133               -0.00      0.00      0.00
  TU134              231.00      2.49     24.77
  TU135               -0.00      0.00      0.00
  TU136                0.00      0.00      0.00
  TU137              163.00      0.23      0.10
  TU138              163.00      0.23      0.10
  TU139              163.00      0.16      0.04
  TU14                92.00      0.20      0.10
  TU140              163.00      0.16      0.04
  TU141                0.00      0.00      0.00
  TU142              100.00      0.27      0.19
  TU143               -0.00      0.00      0.00
  TU144               -0.00      0.00      0.00
  TU145              231.00      1.60      8.36
  TU146              231.00      1.01      2.70
  TU147              231.00      0.62      0.85
  TU148               -0.00      0.00      0.00
  TU149               -0.00      0.00      0.00
  TU15                -0.00      0.00      0.00
  TU150               -0.00      0.00      0.00
  TU151              231.00      0.33      0.18
  TU152              149.00      1.70     12.62
  TU15301            464.00      0.66      0.63
  TU15302            380.00      0.54      0.44
  TU1074              84.00      1.10      6.22
  TU154              642.00      0.63      0.47
  TU155               -0.00      0.00      0.00
  TU156              642.00      0.63      0.47
  TU157              742.00      0.73      0.62
  TU158                0.00      0.00      0.00
  TU159              742.00      0.73      0.62
  TU16              1767.00      0.32      0.05
  TU160                0.00      0.00      0.00
  TU161              742.00      0.73      0.62
  TU162              586.00      0.42      0.19
  TU163              586.00      0.42      0.19
  TU164              586.00      0.42      0.19
  TU166               -0.00      0.00      0.00
  TU167               -0.00      0.00      0.00
  TU168                0.00      0.00      0.00
  TU169                0.00      0.00      0.00
  TU17                -0.00      0.00      0.00
  TU170                0.00      0.00      0.00
  TU171              586.00      0.42      0.19
  TU17201             -0.00      0.00      0.00
  TU17202              0.00      0.00      0.00
  TU1011A             -0.00      0.00      0.00
  TU173               -0.00      0.00      0.00
  TU174               -0.00      0.00      0.00
  TU175               -0.00      0.00      0.00
  TU176              438.00      0.43      0.24
  TU177              586.00      0.58      0.40
  TU178              300.00      0.29      0.12
  TU179              208.00      0.59      0.79
  TU18                 0.00      0.00      0.00
  TU180              208.00      0.59      0.79
  TU181              208.00      1.75     11.09
  TU182              208.00      0.95      2.52
  TU183                0.00      0.00      0.00
  TU184                0.00      0.00      0.00
  TU185               -0.00      0.00      0.00
  TU186               -0.00      0.00      0.00
  TU187               -0.00      0.00      0.00
  TU188              475.00      0.34      0.13
  TU189              475.00      0.34      0.13
  TU19                81.00      1.44     12.13
  TU190               -0.00      0.00      0.00
  TU191               -0.00      0.00      0.00
  TU192                0.00      0.00      0.00
  TU193                0.00      0.00      0.00
  TU194               -0.00      0.00      0.00
  TU195                0.00      0.00      0.00
  TU196                0.00      0.00      0.00
  TU197               -0.00      0.00      0.00
  TU198                0.00      0.00      0.00
  TU199                0.00      0.00      0.00
  TU2                  0.00      0.00      0.00
  TU20                81.00      0.59      1.40
  TU200               -0.00      0.00      0.00
  TU201                0.00      0.00      0.00
  TU203                0.00      0.00      0.00
  TU204                0.00      0.00      0.00
  TU205                0.00      0.00      0.00
  TU21                -0.00      0.00      0.00
  TU22               556.00      0.31      0.09
  TU23               615.00      0.34      0.11
  TU24               615.00      0.34      0.11
  TU25               615.00      0.34      0.12
  TU26               416.00      0.41      0.22
  TU27               416.00      0.41      0.21
  TU28               416.00      0.41      0.22
  TU29               475.00      0.47      0.27
  TU3                  0.00      0.00      0.00
  TU30                 0.00      0.00      0.00
  TU31                -0.00      0.00      0.00
  TU32                 0.00      0.00      0.00
  TU33                 0.00      0.00      0.00
  TU34                 0.00      0.00      0.00
  TU35                 0.00      0.00      0.00
  TU36                 0.00      0.00      0.00
  TU37                 0.00      0.00      0.00
  TU38                 0.00      0.00      0.00
  TU39                -0.00      0.00      0.00
  TU4                380.00      0.54      0.44
  TU40                 0.00      0.00      0.00
  TU41                -0.00      0.00      0.00
  TU42                 0.00      0.00      0.00
  TU43                -0.00      0.00      0.00
  TU44                -0.00      0.00      0.00
  TU45                -0.00      0.00      0.00
  TU46                -0.00      0.00      0.00
  TU47                -0.00      0.00      0.00
  TU48                 0.00      0.00      0.00
  TU49                 0.00      0.00      0.00
  TU5                380.00      0.54      0.44
  TU50                 0.00      0.00      0.00
  TU52                 0.00      0.00      0.00
  TU53                 0.00      0.00      0.00
  TU54                 0.00      0.00      0.00
  TU55                 0.00      0.00      0.00
  TU56                 0.00      0.00      0.00
  TU57                 0.00      0.00      0.00
  TU58                58.00      1.03      6.59
  TU59                58.00      0.16      0.08
  TU6                 -0.00      0.00      0.00
  TU61                 0.00      0.00      0.00
  TU62                -0.00      0.00      0.00
  TU63                 0.00      0.00      0.00
  TU65                 0.00      0.00      0.00
  TU66                 0.00      0.00      0.00
  TU67                62.00      0.18      0.09
  TU68                62.00      0.18      0.09
  TU69               120.00      0.17      0.05
  TU7                  0.00      0.00      0.00
  TU70               120.00      0.17      0.05
  TU71               120.00      0.17      0.05
  TU72                 0.00      0.00      0.00
  TU73               134.00      0.30      0.20
  TU74               208.00      0.46      0.43
  TU75               208.00      0.46      0.43
  TU76               296.00      0.65      0.82
  TU77               296.00      0.65      0.82
  TU78                 0.00      0.00      0.00
  TU79                 0.00      0.00      0.00
  TU8                  0.00      0.00      0.00
  TU80                 0.00      0.00      0.00
  TU81                 0.00      0.00      0.00
  TU82                 0.00      0.00      0.00
  TU83                 0.00      0.00      0.00
  TU84                 0.00      0.00      0.00
  TU85                 0.00      0.00      0.00
  TU86                 0.00      0.00      0.00
  TU87                 0.00      0.00      0.00
  TU88                 0.00      0.00      0.00
  TU89                 0.00      0.00      0.00
  TU9                  0.00      0.00      0.00
  TU90                 0.00      0.00      0.00
  TU91                -0.00      0.00      0.00
  TU92               108.00      0.49      0.76
  TU93               108.00      0.31      0.24
  TU94                 0.00      0.00      0.00
  TU95               108.00      0.31      0.24
  TU96                 0.00      0.00      0.00
  TU97                 0.00      0.00      0.00
  TU98                 0.00      0.00      0.00
  TU99               108.00      0.24      0.13
  TU4000               0.00      0.00      0.00
  TU60                 0.00      0.00      0.00
  TU64                 0.00      0.00      0.00
  TU51                 0.00      0.00      0.00
  2                   -0.00      0.00     36.00  PBV
  3                    0.00      0.00      0.00  PBV
   
  Analysis ended Fri Sep  8 13:09:40 2023
