  Page 1                                    Fri Sep  8 13:23:25 2023

  ******************************************************************
  *                           E P A N E T                          *
  *                   Hydraulic and Water Quality                  *
  *                   Analysis for Pipe Networks                   *
  *                         Version 2.2                            *
  ******************************************************************
  
  Analysis begun Fri Sep  8 13:23:25 2023

   
  Node Results:
  ----------------------------------------------
                     Demand      Head  Pressure
  Node                 m3/h         m         m
  ----------------------------------------------
  3661                 0.00    428.94     50.80
  482                  0.00    427.61     81.61
  661                  0.00    425.68     95.68
  6610                 0.00    428.51     68.51
  6611                 0.00    427.42     92.42
  6612                 0.00    428.51     66.14
  6613                 0.00    427.64     72.64
  6615                 0.00    425.81     86.81
  6616                 0.00    425.71     64.71
  6617                 0.00    425.62     82.62
  6618                 0.00    425.76     77.76
  662                  0.00    428.73    100.73
  6620                 0.00    425.42    117.42
  6621                 0.00    425.59     97.59
  6622                 0.00    425.63     88.63
  6623                 0.00    425.67     74.67
  6624                 0.00    425.68     73.68
  6625                 0.00    389.68     77.68
  6626                 0.00    425.68    104.68
  6627                 0.00    425.68    104.68
  6628                 0.00    428.08     89.08
  6629                 0.00    428.52     88.52
  663                  0.00    428.60     87.60
  6630                 0.00    428.64     88.84
  6632                 0.00    428.69     88.69
  6633                 0.00    428.89     66.25
  6634                 0.00    428.91     57.91
  6635                 0.00    428.70     76.70
  6636                 0.00    428.70     72.70
  6637                 0.00    428.52     61.52
  6639                 0.00    428.51     68.51
  664                  0.00    428.44     80.44
  6640                 0.00    428.51     68.51
  6641                 0.00    428.51     69.83
  6642                 0.00    428.51     72.51
  6643                 0.00    428.53     76.53
  6644                 0.00    428.55     76.55
  6645                 0.00    428.55     78.55
  6646                 0.00    426.52     79.50
  6648                 0.00    426.79     80.78
  6649                 0.00    428.36     89.36
  665                  0.00    428.36     83.36
  666                  0.00    428.64     88.64
  6665                 0.00    428.05     62.91
  6666                 0.00    428.36     60.70
  667                  0.00    428.55     76.55
  668                  0.00    425.68     95.68
  669                  0.00    428.43     83.43
  1                   84.00    428.80     98.80
  10                  56.00    428.25     76.25
  100                  0.00    428.51     73.51
  100B                 0.00    428.51     70.51
  101                  0.00    427.64     74.64
  103                 50.00    424.25     85.25
  104                149.00    424.10     85.10
  105                  0.00    427.64     72.64
  106                  0.00    427.64     72.64
  107                  0.00    425.81     86.81
  108                  0.00    425.81     87.25
  109                  0.00    425.81     88.81
  11B                  0.00    428.30     85.30
  110                 62.00    425.74     79.74
  111                  0.00    425.72     86.94
  112                  0.00    425.73     83.73
  113                  0.00    425.68    102.68
  114                  0.00    425.62     77.62
  115                  0.00    425.62     79.62
  116                  0.00    425.62     80.62
  117                  0.00    425.62     82.62
  118                  0.00    425.62     86.62
  119                  0.00    425.62    102.81
  12                   0.00    428.03     97.69
  121                 51.00    425.63     76.83
  122                  0.00    425.62     77.72
  123                  0.00    425.62     79.62
  125                  0.00    425.62     74.62
  126                 71.00    425.50     77.50
  127                  0.00    425.50     82.17
  128                  0.00    425.71     63.71
  129                  0.00    425.69     69.69
  130                  0.00    425.68     84.60
  130B                 0.00    425.69     72.69
  132                  0.00    424.12     91.12
  134                  0.00    425.68    104.68
  135                  0.00    425.68    109.68
  137                  0.00    425.68    116.68
  139                  0.00    425.68     65.68
  14                   0.00    427.64     89.64
  140                  0.00    425.68     74.68
  141                  0.00    425.68     73.68
  142                  0.00    425.68     64.68
  143                 55.00    421.83     80.86
  144                  0.00    425.70     66.70
  146                  0.00    425.68     79.68
  147                  0.00    425.68    104.68
  148                  0.00    425.68     92.68
  149                  0.00    389.68     76.47
  15                   0.00    427.42     92.42
  150                  0.00    389.68     81.61
  151                  0.00    389.68     84.44
  152                  0.00    389.68     79.66
  153                  0.00    389.68     79.68
  154                  0.00    425.57    100.57
  157                 62.00    424.08    121.08
  158A                 0.00    425.42    104.42
  158B                 0.00    425.42    104.42
  16B                131.00    427.68     93.68
  160                 68.00    428.50     61.50
  162                  0.00    428.43     60.43
  163                  0.00    428.36     54.36
  164                 59.00    428.18     68.52
  165                 64.00    428.05     66.75
  166                  0.00    428.05     67.04
  167                  0.00    428.05     57.41
  169                 79.00    427.97     61.47
  17A                213.00    427.24     92.24
  170                  0.00    428.62     69.62
  17B                  0.00    427.24     92.24
  171                  0.00    428.70     76.70
  172                  0.00    428.70     88.70
  18B                  0.00    427.24    102.24
  19                   0.00    428.89     70.89
  2                    0.00    428.74    102.74
  20                   0.00    428.94     64.94
  2002                 0.00    428.43     78.43
  2003                 0.00    428.43     78.43
  21                  63.00    425.85     64.25
  22                   0.00    425.85     64.25
  222                 70.00    425.83     75.83
  24                   0.00    425.81     81.81
  25                   0.00    425.79     80.79
  26                   0.00    425.76     77.76
  27                   0.00    425.77     75.77
  28                   0.00    425.76     75.76
  29                  48.00    425.71     69.71
  3                    0.00    428.67     88.32
  30                   0.00    425.71     64.71
  3002                 0.00    428.94     42.94
  3004                 0.00    428.94     42.94
  3005                 0.00    428.94     42.94
  3008                 0.00    428.94     43.94
  3012                 0.00    428.94     58.21
  3013                 0.00    428.94     64.01
  3016                 0.00    428.94     63.94
  3017                 0.00    428.94     46.94
  3018                 0.00    428.79     51.79
  3019                 0.00    428.94     59.55
  3020                 0.00    428.94     60.83
  3024                 0.00    428.94     64.00
  31                  69.00    425.68     67.89
  3152                 0.00    428.94     62.74
  32                   0.00    425.69     67.69
  34                   0.00    425.67     74.65
  35                   0.00    425.63     88.63
  36                   0.00    425.59     97.59
  39                   0.00    425.52    112.52
  41                   0.00    425.42    118.42
  46                   0.00    428.79     52.79
  47                   0.00    428.13     69.95
  48                   0.00    427.22     83.22
  49                  77.00    424.30     72.30
  5                    0.00    428.63     81.63
  52                  85.00    424.26     73.26
  53                   0.00    428.91     72.91
  54                   0.00    428.86     83.86
  55                   0.00    428.59     98.59
  56                   0.00    428.49     94.49
  58                 121.00    427.58     94.58
  59                   0.00    427.58     98.58
  6                   61.00    428.33     76.33
  60                   0.00    426.58     81.58
  61                  75.00    425.58     86.58
  62                   0.00    428.55     74.55
  64                   0.00    428.71     97.71
  65                   0.00    428.69     88.69
  66                   0.00    428.69     89.69
  67                   0.00    428.66     96.66
  68                   0.00    428.64     89.64
  69                   0.00    428.64     77.64
  7                    0.00    428.51     75.51
  70                 122.00    428.08     88.08
  71                   0.00    428.52     91.52
  72                   0.00    428.55     72.55
  73                   0.00    428.53     73.53
  77                   0.00    428.55     72.55
  78                   0.00    428.55     88.41
  79                   0.00    428.51     75.51
  8                    0.00    428.55     78.55
  80                   0.00    428.39     79.39
  81                   0.00    426.79     67.79
  82                 129.00    425.75     67.75
  85                   0.00    428.08     89.08
  86                   0.00    428.08     91.08
  87                 119.00    428.51     68.51
  88                   0.00    428.51     75.51
  89                   0.00    428.51     61.51
  90                   0.00    428.51     72.51
  91                   0.00    428.51     56.51
  92                   0.00    428.51     68.51
  91B                  0.00    428.51     68.51
  94                   0.00    428.36     89.36
  95                   0.00    428.36     85.36
  97                   0.00    428.36     97.36
  99                   0.00    428.51     78.51
  74                   0.00    428.53     69.82
  1074                 0.00    428.53     70.53
  11A                  0.00    428.36     85.36
  1011                 0.00    428.36     85.36
  4                    0.00    425.68    113.68
  9                    0.00    425.42    115.42
  0                -1742.00    429.00      0.00  Reservoir
  balsa             -551.00    425.86      0.00  Reservoir
   
   
  Link Results:
  ----------------------------------------------
                       Flow  Velocity  Headloss
  Link                 m3/h       m/s    /1000m
  ----------------------------------------------
  TU1                 -0.00      0.00      0.00
  TU10                 0.00      0.00      0.00
  TU100              122.00      0.27      0.17
  TU101              122.00      0.17      0.06
  TU102                0.00      0.00      0.00
  TU103              122.00      0.17      0.06
  TU104              122.00      0.17      0.06
  TU105              908.00      0.40      0.13
  TU106              908.00      0.40      0.13
  TU107                0.00      0.00      0.00
  TU108              983.00      0.43      0.15
  TU109             1105.00      0.48      0.18
  TU11                -0.00      0.00      0.00
  TU110             1105.00      0.48      0.18
  TU111                0.00      0.00      0.00
  TU112              121.00      0.88      2.91
  TU113              121.00      0.64      1.35
  TU114              121.00      0.64      1.35
  TU115             1310.00      0.46      0.15
  TU116             1310.00      0.46      0.15
  TU117               -0.00      0.00      0.00
  TU118                0.00      0.00      0.00
  TU119             1310.00      0.46      0.15
  TU12               149.00      1.70     12.62
  TU120             1310.00      0.46      0.15
  TU121               -0.00      0.00      0.00
  TU122                0.00      0.00      0.00
  TU123               -0.00      0.00      0.00
  TU124               85.00      0.97      4.51
  TU125              162.00      1.18      4.96
  TU126              162.00      0.74      1.59
  TU127              162.00      0.74      1.59
  TU128                0.00      0.00      0.00
  TU129                0.00      0.00      0.00
  TU13               199.00      1.45      7.24
  TU130               64.00      0.28      0.27
  TU131               64.00      0.28      0.26
  TU132               79.00      0.34      0.39
  TU133              143.00      0.62      1.13
  TU134               -0.00      0.00      0.00
  TU135              202.00      0.45      0.41
  TU136              270.00      0.60      0.70
  TU137              432.00      0.61      0.56
  TU138              432.00      0.61      0.56
  TU139              432.00      0.42      0.23
  TU14               199.00      0.44      0.40
  TU140              432.00      0.42      0.23
  TU141                0.00      0.00      0.00
  TU142                0.00      0.00      0.00
  TU143               -0.00      0.00      0.00
  TU144               -0.00      0.00      0.00
  TU145               -0.00      0.00      0.00
  TU146               -0.00      0.00      0.00
  TU147               -0.00      0.00      0.00
  TU148               -0.00      0.00      0.00
  TU149               -0.00      0.00      0.00
  TU15                -0.00      0.00      0.00
  TU150               -0.00      0.00      0.00
  TU151               -0.00      0.00      0.00
  TU152               -0.00      0.00      0.00
  TU15301            119.00      0.17      0.05
  TU15302            119.00      0.17      0.05
  TU1074               0.00      0.00      0.00
  TU154              119.00      0.12      0.02
  TU155               56.00      0.94      5.40
  TU156              175.00      0.17      0.05
  TU157              175.00      0.17      0.04
  TU158               61.00      1.09      7.22
  TU159              236.00      0.23      0.08
  TU16              1742.00      0.31      0.05
  TU160                0.00      0.00      0.00
  TU161              236.00      0.23      0.08
  TU162              672.00      0.49      0.24
  TU163              672.00      0.49      0.24
  TU164              672.00      0.49      0.25
  TU166               -0.00      0.00      0.00
  TU167              129.00      1.70     13.66
  TU168              129.00      1.70     13.66
  TU169              129.00      1.09      4.61
  TU17                -0.00      0.00      0.00
  TU170              129.00      0.59      1.05
  TU171              543.00      0.39      0.17
  TU17201             -0.00      0.00      0.00
  TU17202              0.00      0.00      0.00
  TU1011A             -0.00      0.00      0.00
  TU173               -0.00      0.00      0.00
  TU174               -0.00      0.00      0.00
  TU175               -0.00      0.00      0.00
  TU176              543.00      0.53      0.35
  TU177              543.00      0.53      0.35
  TU178              543.00      0.53      0.35
  TU179              213.00      0.60      0.83
  TU18                 0.00      0.00      0.00
  TU180              213.00      0.60      0.83
  TU181                0.00      0.00      0.00
  TU182                0.00      0.00      0.00
  TU183               75.00      0.86      3.59
  TU184                0.00      0.00      0.00
  TU185              122.00      0.27      0.17
  TU186              202.00      0.55      0.66
  TU187              202.00      0.45      0.41
  TU188              418.00      0.30      0.10
  TU189              418.00      0.30      0.10
  TU19                 0.00      0.00      0.00
  TU190               -0.00      0.00      0.00
  TU191               75.00      1.33     10.54
  TU192                0.00      0.00      0.00
  TU193                0.00      0.00      0.00
  TU194               -0.00      0.00      0.00
  TU195                0.00      0.00      0.00
  TU196                0.00      0.00      0.00
  TU197               -0.00      0.00      0.00
  TU198                0.00      0.00      0.00
  TU199                0.00      0.00      0.00
  TU2                  0.00      0.00      0.00
  TU20                -0.00      0.00      0.00
  TU200               -0.00      0.00      0.00
  TU201                0.00      0.00      0.00
  TU203                0.00      0.00      0.00
  TU204                0.00      0.00      0.00
  TU205                0.00      0.00      0.00
  TU21                -0.00      0.00      0.00
  TU22               418.00      0.23      0.05
  TU23               488.00      0.27      0.07
  TU24               488.00      0.27      0.07
  TU25               551.00      0.30      0.12
  TU26               186.00      0.18      0.05
  TU27               186.00      0.18      0.05
  TU28               234.00      0.23      0.08
  TU29               234.00      0.23      0.08
  TU3                  0.00      0.00      0.00
  TU30                 0.00      0.00      0.00
  TU31                -0.00      0.00      0.00
  TU32                 0.00      0.00      0.00
  TU33                 0.00      0.00      0.00
  TU34                 0.00      0.00      0.00
  TU35                 0.00      0.00      0.00
  TU36                 0.00      0.00      0.00
  TU37                 0.00      0.00      0.00
  TU38                 0.00      0.00      0.00
  TU39                -0.00      0.00      0.00
  TU4                 -0.00      0.00      0.00
  TU40                71.00      0.52      1.11
  TU41                71.00      0.16      0.06
  TU42                 0.00      0.00      0.00
  TU43               122.00      0.17      0.06
  TU44               122.00      0.17      0.06
  TU45               184.00      0.26      0.12
  TU46               184.00      0.26      0.12
  TU47                -0.00      0.00      0.00
  TU48                 0.00      0.00      0.00
  TU49                 0.00      0.00      0.00
  TU5                  0.00      0.00      0.00
  TU50                62.00      1.28     10.64
  TU52                62.00      0.21      0.13
  TU53                62.00      0.21      0.13
  TU54                 0.00      0.00      0.00
  TU55                62.00      0.21      0.13
  TU56                 0.00      0.00      0.00
  TU57                62.00      0.18      0.09
  TU58                 0.00      0.00      0.00
  TU59                62.00      0.18      0.09
  TU6                122.00      0.17      0.06
  TU61                 0.00      0.00      0.00
  TU62                -0.00      0.00      0.00
  TU63                 0.00      0.00      0.00
  TU65                 0.00      0.00      0.00
  TU66                 0.00      0.00      0.00
  TU67                 0.00      0.00      0.00
  TU68                 0.00      0.00      0.00
  TU69                62.00      0.09      0.02
  TU7                  0.00      0.00      0.00
  TU70               131.00      0.19      0.06
  TU71               131.00      0.19      0.06
  TU72                55.00      0.12      0.04
  TU73                55.00      0.12      0.04
  TU74                55.00      0.12      0.04
  TU75                55.00      0.12      0.04
  TU76                55.00      0.12      0.04
  TU77                55.00      0.12      0.04
  TU78                 0.00      0.00      0.00
  TU79                 0.00      0.00      0.00
  TU8                  0.00      0.00      0.00
  TU80                 0.00      0.00      0.00
  TU81                 0.00      0.00      0.00
  TU82                55.00      0.98      5.98
  TU83                55.00      0.72      2.88
  TU84                 0.00      0.00      0.00
  TU85                 0.00      0.00      0.00
  TU86                 0.00      0.00      0.00
  TU87                 0.00      0.00      0.00
  TU88                55.00      0.12      0.04
  TU89                 0.00      0.00      0.00
  TU9                  0.00      0.00      0.00
  TU90                 0.00      0.00      0.00
  TU91                -0.00      0.00      0.00
  TU92               122.00      0.56      0.95
  TU93               122.00      0.35      0.30
  TU94                 0.00      0.00      0.00
  TU95               122.00      0.35      0.30
  TU96                 0.00      0.00      0.00
  TU97                 0.00      0.00      0.00
  TU98                 0.00      0.00      0.00
  TU99               122.00      0.27      0.17
  TU4000               0.00      0.00      0.00
  TU60                -0.00      0.00      0.00
  TU64                 0.00      0.00      0.00
  TU51                62.00      0.33      0.40
  2                    0.00      0.00     36.00
  3                   62.00      1.28      0.00
   
  Analysis ended Fri Sep  8 13:23:25 2023
