  Page 1                                    Fri Sep  8 13:10:54 2023

  ******************************************************************
  *                           E P A N E T                          *
  *                   Hydraulic and Water Quality                  *
  *                   Analysis for Pipe Networks                   *
  *                         Version 2.2                            *
  ******************************************************************
  
  Analysis begun Fri Sep  8 13:10:54 2023

   
  Node Results:
  ----------------------------------------------
                     Demand      Head  Pressure
  Node                 m3/h         m         m
  ----------------------------------------------
  3661                 0.00    428.98     50.84
  482                  0.00    428.97     82.97
  661                  0.00    426.11     96.11
  6610                 0.00    428.41     68.41
  6611                 0.00    428.62     93.62
  6612                 0.00    428.57     66.20
  6613                 0.00    427.59     72.59
  6615                 0.00    426.12     87.12
  6616                 0.00    426.11     65.11
  6617                 0.00    425.92     82.92
  6618                 0.00    426.10     78.10
  662                  0.00    428.89    100.89
  6620                 0.00    426.11    118.11
  6621                 0.00    426.11     98.11
  6622                 0.00    426.11     89.11
  6623                 0.00    426.11     75.11
  6624                 0.00    426.11     74.11
  6625                 0.00    390.11     78.11
  6626                 0.00    426.11    105.11
  6627                 0.00    426.11    105.11
  6628                 0.00    428.15     89.15
  6629                 0.00    428.65     88.65
  663                  0.00    428.82     87.82
  6630                 0.00    428.78     88.98
  6632                 0.00    428.84     88.84
  6633                 0.00    428.96     66.32
  6634                 0.00    428.97     57.97
  6635                 0.00    428.98     76.98
  6636                 0.00    428.98     72.98
  6637                 0.00    428.97     61.97
  6639                 0.00    428.45     68.45
  664                  0.00    428.80     80.80
  6640                 0.00    428.41     68.41
  6641                 0.00    428.48     69.80
  6642                 0.00    428.42     72.42
  6643                 0.00    428.71     76.71
  6644                 0.00    428.74     76.74
  6645                 0.00    428.76     78.76
  6646                 0.00    428.80     81.78
  6648                 0.00    428.80     82.79
  6649                 0.00    428.77     89.77
  665                  0.00    428.77     83.77
  666                  0.00    428.78     88.78
  6665                 0.00    428.94     63.80
  6666                 0.00    428.96     61.30
  667                  0.00    428.74     76.74
  668                  0.00    426.11     96.11
  669                  0.00    428.55     83.55
  1                    0.00    428.92     98.92
  10                   0.00    428.71     76.71
  100                118.00    428.39     73.39
  100B                82.00    427.93     69.93
  101                 96.00    427.31     74.31
  103                  0.00    428.58     89.58
  104                  0.00    428.58     89.58
  105                  0.00    427.59     72.59
  106                 52.00    427.52     72.52
  107                  0.00    426.12     87.12
  108                  0.00    426.12     87.56
  109                  0.00    426.12     89.12
  11B                  0.00    428.76     85.76
  110                  0.00    426.09     80.09
  111                  0.00    426.06     87.28
  112                  0.00    426.07     84.07
  113                  0.00    426.01    103.01
  114                  0.00    425.92     77.92
  115                  0.00    425.92     79.92
  116                  0.00    425.92     80.92
  117                  0.00    425.92     82.92
  118                  0.00    425.92     86.92
  119                  0.00    425.92    103.11
  12                  45.00    428.69     98.35
  121                  0.00    425.93     77.13
  122                  0.00    425.92     78.02
  123                  0.00    425.92     79.92
  125                  0.00    425.92     74.92
  126                  0.00    425.47     77.47
  127                145.00    423.66     80.33
  128                  0.00    426.11     64.11
  129                  0.00    426.11     70.11
  130                  0.00    426.11     85.03
  130B                 0.00    426.11     73.11
  132                  0.00    426.11     93.11
  134                  0.00    426.11    105.11
  135                  0.00    426.11    110.11
  137                  0.00    426.11    117.11
  139                  0.00    426.11     66.11
  14                  70.00    428.58     90.58
  140                  0.00    426.11     75.11
  141                  0.00    426.11     74.11
  142                  0.00    426.11     65.11
  143                  0.00    426.11     85.14
  144                  0.00    426.11     67.11
  146                  0.00    426.11     80.11
  147                  0.00    426.11    105.11
  148                  0.00    426.11     93.11
  149                  0.00    390.11     76.90
  15                   0.00    428.62     93.62
  150                  0.00    390.11     82.04
  151                  0.00    390.11     84.87
  152                  0.00    390.11     80.09
  153                  0.00    390.11     80.11
  154                  0.00    426.11    101.11
  157                  0.00    426.11    123.11
  158A                 0.00    426.11    105.11
  158B                 0.00    426.11    105.11
  16B                  0.00    428.62     94.62
  160                  0.00    428.97     61.97
  162                  0.00    428.96     60.96
  163                  0.00    428.96     54.96
  164                 52.00    428.94     69.28
  165                  0.00    428.94     67.64
  166                  0.00    428.94     67.93
  167                  0.00    428.94     58.30
  169                  0.00    428.94     62.44
  17A                  0.00    428.62     93.62
  170                  0.00    428.97     69.97
  17B                  0.00    428.62     93.62
  171                  0.00    428.98     76.98
  172                  0.00    428.98     88.98
  18B                  0.00    428.62    103.62
  19                   0.00    428.96     70.96
  2                    0.00    428.89    102.89
  20                   0.00    428.98     64.98
  2002                 0.00    428.55     78.55
  2003                 0.00    428.55     78.55
  21                   0.00    426.12     64.52
  22                   0.00    426.12     64.52
  222                  0.00    426.12     76.12
  24                   0.00    426.12     82.12
  25                   0.00    426.11     81.11
  26                   0.00    426.10     78.10
  27                   0.00    426.11     76.11
  28                   0.00    426.11     76.11
  29                   0.00    426.11     70.11
  3                    0.00    428.86     88.51
  30                   0.00    426.11     65.11
  3002                 0.00    428.98     42.98
  3004                 0.00    428.98     42.98
  3005                 0.00    428.98     42.98
  3008                 0.00    428.98     43.98
  3012                 0.00    428.98     58.25
  3013                 0.00    428.98     64.05
  3016                 0.00    428.98     63.98
  3017               131.00    428.98     46.98
  3018                 0.00    428.98     51.98
  3019                 0.00    428.98     59.59
  3020                 0.00    428.98     60.87
  3024                 0.00    428.98     64.04
  31                   0.00    426.11     68.32
  3152                 0.00    428.98     62.78
  32                   0.00    426.11     68.11
  34                   0.00    426.11     75.09
  35                   0.00    426.11     89.11
  36                   0.00    426.11     98.11
  39                   0.00    426.11    113.11
  41                   0.00    426.11    119.11
  46                   0.00    428.98     52.98
  47                   0.00    428.94     70.76
  48                   0.00    428.97     84.97
  49                   0.00    428.97     76.97
  5                    0.00    428.84     81.84
  52                   0.00    428.97     77.97
  53                   0.00    428.97     72.97
  54                   0.00    428.95     83.95
  55                   0.00    428.92     98.92
  56                   0.00    428.92     94.92
  58                   0.00    428.92     95.92
  59                   0.00    428.92     99.92
  6                    0.00    428.74     76.74
  60                   0.00    426.56     81.56
  61                  79.00    425.46     86.46
  62                   0.00    428.74     74.74
  64                   0.00    428.87     97.87
  65                   0.00    428.84     88.84
  66                   0.00    428.84     89.84
  67                   0.00    428.81     96.81
  68                   0.00    428.78     89.78
  69                   0.00    428.78     77.78
  7                    0.00    428.81     75.81
  70                 131.00    428.15     88.15
  71                   0.00    428.65     91.65
  72                   0.00    428.74     72.74
  73                   0.00    428.70     73.70
  77                   0.00    428.74     72.74
  78                   0.00    428.74     88.60
  79                   0.00    428.81     75.81
  8                    0.00    428.76     78.76
  80                   0.00    428.80     79.80
  81                   0.00    428.80     69.80
  82                   0.00    428.80     70.80
  85                   0.00    428.15     89.15
  86                   0.00    428.15     91.15
  87                 113.00    428.59     68.59
  88                   0.00    428.57     75.57
  89                   0.00    428.52     61.52
  90                   0.00    428.42     72.42
  91                   0.00    428.45     56.45
  92                   0.00    428.41     68.41
  91B                  0.00    428.41     68.41
  94                   0.00    428.77     89.77
  95                   0.00    428.77     85.77
  97                   0.00    428.77     97.77
  99                   0.00    428.52     78.52
  74                   0.00    428.69     69.98
  1074                 0.00    428.69     70.69
  11A                  0.00    428.77     85.77
  1011                 0.00    428.77     85.77
  4                    0.00    426.11    114.11
  9                    0.00    426.11    116.11
  0                 -969.00    429.00      0.00  Reservoir
  balsa             -145.00    426.12     -0.00  Reservoir
   
   
  Link Results:
  ----------------------------------------------
                       Flow  Velocity  Headloss
  Link                 m3/h       m/s    /1000m
  ----------------------------------------------
  TU1                 -0.00      0.00      0.00
  TU10                 0.00      0.00      0.00
  TU100              131.00      0.29      0.19
  TU101              131.00      0.19      0.06
  TU102                0.00      0.00      0.00
  TU103              131.00      0.19      0.06
  TU104              131.00      0.19      0.06
  TU105              576.00      0.25      0.05
  TU106              576.00      0.25      0.05
  TU107                0.00      0.00      0.00
  TU108              655.00      0.29      0.07
  TU109              786.00      0.34      0.10
  TU11               148.00      0.68      1.35
  TU110              786.00      0.34      0.10
  TU111                0.00      0.00      0.00
  TU112               -0.00      0.00      0.00
  TU113                0.00      0.00      0.00
  TU114                0.00      0.00      0.00
  TU115              786.00      0.28      0.06
  TU116              786.00      0.28      0.06
  TU117               -0.00      0.00      0.00
  TU118                0.00      0.00      0.00
  TU119              786.00      0.28      0.06
  TU12                 0.00      0.00      0.00
  TU120              786.00      0.28      0.06
  TU121                0.00      0.00      0.00
  TU122                0.00      0.00      0.00
  TU123               -0.00      0.00      0.00
  TU124                0.00      0.00      0.00
  TU125               -0.00      0.00      0.00
  TU126               -0.00      0.00      0.00
  TU127               -0.00      0.00      0.00
  TU128                0.00      0.00      0.00
  TU129                0.00      0.00      0.00
  TU13                 0.00      0.00      0.00
  TU130               -0.00      0.00      0.00
  TU131               -0.00      0.00      0.00
  TU132                0.00      0.00      0.00
  TU133               -0.00      0.00      0.00
  TU134               -0.00      0.00      0.00
  TU135               52.00      0.11      0.04
  TU136               52.00      0.11      0.04
  TU137               52.00      0.07      0.01
  TU138               52.00      0.07      0.01
  TU139               52.00      0.05      0.01
  TU14               218.00      0.48      0.47
  TU140               52.00      0.05      0.01
  TU141                0.00      0.00      0.00
  TU142                0.00      0.00      0.00
  TU143               -0.00      0.00      0.00
  TU144               82.00      0.89      3.69
  TU145               -0.00      0.00      0.00
  TU146               82.00      0.36      0.41
  TU147               82.00      0.22      0.13
  TU148               -0.00      0.00      0.00
  TU149              118.00      0.82      2.44
  TU15                -0.00      0.00      0.00
  TU150              118.00      0.82      2.44
  TU151              200.00      0.28      0.14
  TU152               -0.00      0.00      0.00
  TU15301            313.00      0.44      0.31
  TU15302            313.00      0.44      0.31
  TU1074               0.00      0.00      0.00
  TU154              313.00      0.31      0.13
  TU155                0.00      0.00      0.00
  TU156              313.00      0.31      0.13
  TU157              313.00      0.31      0.13
  TU158                0.00      0.00      0.00
  TU159              313.00      0.31      0.13
  TU16               969.00      0.17      0.02
  TU160                0.00      0.00      0.00
  TU161              313.00      0.31      0.13
  TU162              263.00      0.19      0.04
  TU163              263.00      0.19      0.04
  TU164              263.00      0.19      0.04
  TU166               -0.00      0.00      0.00
  TU167               -0.00      0.00      0.00
  TU168                0.00      0.00      0.00
  TU169                0.00      0.00      0.00
  TU17                -0.00      0.00      0.00
  TU170                0.00      0.00      0.00
  TU171              263.00      0.19      0.04
  TU17201              0.00      0.00      0.00
  TU17202              0.00      0.00      0.00
  TU1011A             -0.00      0.00      0.00
  TU173               -0.00      0.00      0.00
  TU174               -0.00      0.00      0.00
  TU175               -0.00      0.00      0.00
  TU176              263.00      0.26      0.09
  TU177              263.00      0.26      0.09
  TU178              218.00      0.21      0.07
  TU179                0.00      0.00      0.00
  TU18                 0.00      0.00      0.00
  TU180                0.00      0.00      0.00
  TU181                0.00      0.00      0.00
  TU182               -0.00      0.00      0.00
  TU183               79.00      0.90      3.95
  TU184                0.00      0.00      0.00
  TU185              145.00      0.32      0.23
  TU186               52.00      0.14      0.06
  TU187               52.00      0.11      0.04
  TU188              145.00      0.10      0.02
  TU189              145.00      0.10      0.02
  TU19                 0.00      0.00      0.00
  TU190               -0.00      0.00      0.00
  TU191               79.00      1.41     11.59
  TU192                0.00      0.00      0.00
  TU193                0.00      0.00      0.00
  TU194               -0.00      0.00      0.00
  TU195                0.00      0.00      0.00
  TU196                0.00      0.00      0.00
  TU197               -0.00      0.00      0.00
  TU198                0.00      0.00      0.00
  TU199                0.00      0.00      0.00
  TU2                  0.00      0.00      0.00
  TU20                -0.00      0.00      0.00
  TU200               -0.00      0.00      0.00
  TU201                0.00      0.00      0.00
  TU203                0.00      0.00      0.00
  TU204                0.00      0.00      0.00
  TU205                0.00      0.00      0.00
  TU21                -0.00      0.00      0.00
  TU22               145.00      0.08      0.01
  TU23               145.00      0.08      0.01
  TU24               145.00      0.08      0.01
  TU25               145.00      0.08      0.00
  TU26                 0.00      0.00      0.00
  TU27                 0.00      0.00      0.00
  TU28                 0.00      0.00      0.00
  TU29                 0.00      0.00      0.00
  TU3                  0.00      0.00      0.00
  TU30                 0.00      0.00      0.00
  TU31                -0.00      0.00      0.00
  TU32                 0.00      0.00      0.00
  TU33                 0.00      0.00      0.00
  TU34                 0.00      0.00      0.00
  TU35                -0.00      0.00      0.00
  TU36                 0.00      0.00      0.00
  TU37                 0.00      0.00      0.00
  TU38                 0.00      0.00      0.00
  TU39               145.00      1.66     12.00
  TU4                200.00      0.28      0.14
  TU40               145.00      1.06      4.05
  TU41               145.00      0.32      0.23
  TU42                 0.00      0.00      0.00
  TU43               145.00      0.21      0.08
  TU44               145.00      0.21      0.08
  TU45               145.00      0.21      0.08
  TU46               145.00      0.21      0.08
  TU47                -0.00      0.00      0.00
  TU48                 0.00      0.00      0.00
  TU49                 0.00      0.00      0.00
  TU5                200.00      0.28      0.14
  TU50                 0.00      0.00      0.00
  TU52                 0.00      0.00      0.00
  TU53                 0.00      0.00      0.00
  TU54                 0.00      0.00      0.00
  TU55                 0.00      0.00      0.00
  TU56                 0.00      0.00      0.00
  TU57                 0.00      0.00      0.00
  TU58                 0.00      0.00      0.00
  TU59                 0.00      0.00      0.00
  TU6                145.00      0.21      0.08
  TU61                 0.00      0.00      0.00
  TU62                -0.00      0.00      0.00
  TU63                 0.00      0.00      0.00
  TU65                 0.00      0.00      0.00
  TU66                 0.00      0.00      0.00
  TU67                 0.00      0.00      0.00
  TU68                 0.00      0.00      0.00
  TU69                 0.00      0.00      0.00
  TU7                  0.00      0.00      0.00
  TU70                 0.00      0.00      0.00
  TU71                 0.00      0.00      0.00
  TU72                 0.00      0.00      0.00
  TU73                 0.00      0.00      0.00
  TU74                 0.00      0.00      0.00
  TU75                 0.00      0.00      0.00
  TU76                 0.00      0.00      0.00
  TU77                 0.00      0.00      0.00
  TU78                 0.00      0.00      0.00
  TU79                 0.00      0.00      0.00
  TU8                 96.00      1.04      4.92
  TU80                 0.00      0.00      0.00
  TU81                 0.00      0.00      0.00
  TU82                 0.00      0.00      0.00
  TU83                 0.00      0.00      0.00
  TU84                 0.00      0.00      0.00
  TU85                 0.00      0.00      0.00
  TU86                 0.00      0.00      0.00
  TU87                 0.00      0.00      0.00
  TU88                 0.00      0.00      0.00
  TU89                 0.00      0.00      0.00
  TU9                 52.00      0.87      4.72
  TU90                 0.00      0.00      0.00
  TU91                -0.00      0.00      0.00
  TU92               131.00      0.60      1.08
  TU93               131.00      0.37      0.34
  TU94                 0.00      0.00      0.00
  TU95               131.00      0.37      0.34
  TU96                 0.00      0.00      0.00
  TU97                 0.00      0.00      0.00
  TU98                 0.00      0.00      0.00
  TU99               131.00      0.29      0.19
  TU4000               0.00      0.00      0.00
  TU60                -0.00      0.00      0.00
  TU64                 0.00      0.00      0.00
  TU51                 0.00      0.00      0.00
  2                   -0.00      0.00     36.00  PBV
  3                    0.00      0.00      0.00  PBV
   
  Analysis ended Fri Sep  8 13:10:54 2023
