  Page 1                                    Fri Sep  8 13:14:16 2023

  ******************************************************************
  *                           E P A N E T                          *
  *                   Hydraulic and Water Quality                  *
  *                   Analysis for Pipe Networks                   *
  *                         Version 2.2                            *
  ******************************************************************
  
  Analysis begun Fri Sep  8 13:14:16 2023

   
  Node Results:
  ----------------------------------------------
                     Demand      Head  Pressure
  Node                 m3/h         m         m
  ----------------------------------------------
  3661                 0.00    428.93     50.79
  482                  0.00    428.36     82.36
  661                  0.00    425.72     95.72
  6610                 0.00    427.50     67.50
  6611                 0.00    424.49     89.49
  6612                 0.00    427.94     65.57
  6613                 0.00    424.76     69.76
  6615                 0.00    426.75     87.75
  6616                 0.00    426.30     65.30
  6617                 0.00    426.67     83.67
  6618                 0.00    426.67     78.67
  662                  0.00    428.57    100.57
  6620                 0.00    426.18    118.18
  6621                 0.00    426.18     98.18
  6622                 0.00    426.18     89.18
  6623                 0.00    426.18     75.18
  6624                 0.00    426.19     74.19
  6625                 0.00    389.92     77.92
  6626                 0.00    426.02    105.02
  6627                 0.00    425.38    104.38
  6628                 0.00    428.55     89.55
  6629                 0.00    428.55     88.55
  663                  0.00    428.24     87.24
  6630                 0.00    428.24     88.44
  6632                 0.00    428.56     88.56
  6633                 0.00    428.85     66.21
  6634                 0.00    428.88     57.88
  6635                 0.00    428.76     76.76
  6636                 0.00    428.76     72.76
  6637                 0.00    428.67     61.67
  6639                 0.00    427.72     67.72
  664                  0.00    427.87     79.87
  6640                 0.00    427.60     67.60
  6641                 0.00    427.81     69.13
  6642                 0.00    427.75     71.75
  6643                 0.00    428.05     76.05
  6644                 0.00    428.10     76.10
  6645                 0.00    428.12     78.12
  6646                 0.00    427.87     80.85
  6648                 0.00    427.87     81.86
  6649                 0.00    427.62     88.62
  665                  0.00    427.62     82.62
  666                  0.00    428.55     88.55
  6665                 0.00    428.24     63.10
  6666                 0.00    428.56     60.90
  667                  0.00    428.09     76.09
  668                  0.00    425.72     95.72
  669                  0.00    428.55     83.55
  1                    0.00    428.72     98.72
  10                  63.00    427.70     75.70
  100                111.00    427.72     72.72
  100B                87.00    427.06     69.06
  101                 98.00    424.47     71.47
  103                  0.00    424.20     85.20
  104                132.00    424.07     85.07
  105                  0.00    424.76     69.76
  106                 54.00    424.68     69.68
  107                  0.00    426.75     87.75
  108                  0.00    426.75     88.19
  109                  0.00    426.75     89.75
  11B                141.00    427.44     84.44
  110                  0.00    426.67     80.67
  111                  0.00    426.67     87.89
  112                  0.00    426.67     84.67
  113                  0.00    426.67    103.67
  114                  0.00    426.67     78.67
  115                  0.00    426.67     80.67
  116                  0.00    426.67     81.67
  117                  0.00    426.67     83.67
  118                  0.00    426.67     87.67
  119                  0.00    426.67    103.86
  12                   0.00    426.78     96.44
  121                  0.00    426.67     77.87
  122                  0.00    426.67     78.77
  123                  0.00    426.67     80.67
  125                  0.00    426.67     75.67
  126                  0.00    426.67     78.67
  127                  0.00    426.67     83.34
  128                  0.00    426.27     64.27
  129                  0.00    425.92     69.92
  130                118.00    425.75     84.67
  130B                65.00    425.83     72.83
  132                  0.00    424.46     91.46
  134                 59.00    425.09    104.09
  135                  0.00    425.38    109.38
  137                  0.00    425.38    116.38
  139                  0.00    425.72     65.72
  14                  69.00    425.80     87.80
  140                  0.00    425.72     74.72
  141                  0.00    425.72     73.72
  142                  0.00    425.72     64.72
  143                 49.00    422.60     81.63
  144                 85.00    426.08     67.08
  146                  0.00    426.07     80.07
  147                  0.00    426.02    105.02
  148                 62.00    426.05     93.05
  149                  0.00    389.92     76.71
  15                 170.00    424.09     89.09
  150                  0.00    389.81     81.74
  151                  0.00    389.58     84.34
  152                 66.00    387.79     77.77
  153                  0.00    388.39     78.39
  154                  0.00    426.18    101.18
  157                  0.00    426.18    123.18
  158A                 0.00    426.18    105.18
  158B                 0.00    426.18    105.18
  16B                  0.00    425.90     91.90
  160                  0.00    428.66     61.66
  162                  0.00    428.61     60.61
  163                  0.00    428.56     54.56
  164                  0.00    428.45     68.79
  165                  0.00    428.24     66.94
  166                 87.00    428.24     67.23
  167                  0.00    428.24     57.60
  169                 75.00    428.23     61.73
  17A                  0.00    424.01     89.01
  170                103.00    428.71     69.71
  17B                149.00    423.52     88.52
  171                  0.00    428.76     76.76
  172                  0.00    428.76     88.76
  18B                218.00    417.84     92.84
  19                   0.00    428.85     70.85
  2                    0.00    428.60    102.60
  20                   0.00    428.93     64.93
  2002                 0.00    428.55     78.55
  2003                 0.00    428.55     78.55
  21                   0.00    426.82     65.22
  22                   0.00    426.82     65.22
  222                  0.00    426.78     76.78
  24                   0.00    426.75     82.75
  25                   0.00    426.71     81.71
  26                   0.00    426.67     78.67
  27                   0.00    426.67     76.67
  28                   0.00    426.58     76.58
  29                   0.00    426.34     70.34
  3                    0.00    428.42     88.07
  30                   0.00    426.31     65.31
  3002                 0.00    428.93     42.93
  3004                 0.00    428.93     42.93
  3005                 0.00    428.93     42.93
  3008                 0.00    428.93     43.93
  3012                 0.00    428.93     58.20
  3013                 0.00    428.93     64.00
  3016                 0.00    428.93     63.93
  3017                 0.00    428.93     46.93
  3018                 0.00    428.82     51.82
  3019                 0.00    428.93     59.54
  3020                 0.00    428.93     60.82
  3024                 0.00    428.93     63.99
  31                  55.00    426.22     68.43
  3152                 0.00    428.93     62.73
  32                   0.00    426.25     68.25
  34                  55.00    426.07     75.05
  35                   0.00    426.18     89.18
  36                   0.00    426.18     98.18
  39                   0.00    426.18    113.18
  41                   0.00    426.18    119.18
  46                   0.00    428.82     52.82
  47                   0.00    428.38     70.20
  48                   0.00    428.23     84.23
  49                  89.00    427.25     75.25
  5                    0.00    428.32     81.32
  52                   0.00    427.25     76.25
  53                   0.00    428.88     72.88
  54                   0.00    428.80     83.80
  55                   0.00    428.72     98.72
  56                   0.00    428.72     94.72
  58                   0.00    428.72     95.72
  59                   0.00    428.72     99.72
  6                    0.00    428.10     76.10
  60                   0.00    426.38     81.38
  61                  74.00    425.40     86.40
  62                 108.00    423.70     69.70
  64                   0.00    428.56     97.56
  65                   0.00    428.56     88.56
  66                   0.00    428.56     89.56
  67                   0.00    428.55     96.55
  68                   0.00    428.24     89.24
  69                  51.00    427.63     76.63
  7                    0.00    428.03     75.03
  70                   0.00    428.55     88.55
  71                   0.00    428.55     91.55
  72                   0.00    428.01     72.01
  73                   0.00    428.05     73.05
  77                   0.00    428.01     72.01
  78                   0.00    428.01     87.87
  79                  51.00    428.03     75.03
  8                    0.00    428.12     78.12
  80                   0.00    427.87     78.87
  81                   0.00    427.87     68.87
  82                   0.00    427.87     69.87
  85                   0.00    428.55     89.55
  86                   0.00    428.55     91.55
  87                   0.00    427.97     67.97
  88                   0.00    427.94     74.94
  89                   0.00    427.87     60.87
  90                   0.00    427.75     71.75
  91                   0.00    427.72     55.72
  92                   0.00    427.50     67.50
  91B                 58.00    427.46     67.46
  94                   0.00    427.62     88.62
  95                   0.00    427.62     84.62
  97                   0.00    427.62     96.62
  99                   0.00    427.87     77.87
  74                   0.00    428.04     69.33
  1074                 0.00    428.04     70.04
  11A                  0.00    427.62     84.62
  1011                 0.00    427.62     84.62
  4                    0.00    425.92    113.92
  9                    0.00    426.18    116.18
  0                -1988.00    429.00      0.00  Reservoir
  balsa             -614.00    426.82      0.00  Reservoir
   
   
  Link Results:
  ----------------------------------------------
                       Flow  Velocity  Headloss
  Link                 m3/h       m/s    /1000m
  ----------------------------------------------
  TU1                 -0.00      0.00      0.00
  TU10                 0.00      0.00      0.00
  TU100               51.00      0.11      0.03
  TU101               51.00      0.07      0.01
  TU102                0.00      0.00      0.00
  TU103               51.00      0.07      0.01
  TU104               51.00      0.07      0.01
  TU105             1509.00      0.66      0.32
  TU106             1509.00      0.66      0.32
  TU107                0.00      0.00      0.00
  TU108             1583.00      0.69      0.35
  TU109             1634.00      0.71      0.37
  TU11               152.00      0.70      1.42
  TU110             1634.00      0.71      0.37
  TU111                0.00      0.00      0.00
  TU112               -0.00      0.00      0.00
  TU113                0.00      0.00      0.00
  TU114                0.00      0.00      0.00
  TU115             1634.00      0.58      0.22
  TU116             1634.00      0.58      0.22
  TU117               -0.00      0.00      0.00
  TU118                0.00      0.00      0.00
  TU119             1634.00      0.58      0.22
  TU12               132.00      1.51     10.10
  TU120             1634.00      0.58      0.22
  TU121                0.00      0.00      0.00
  TU122                0.00      0.00      0.00
  TU123               -0.00      0.00      0.00
  TU124                0.00      0.00      0.00
  TU125               89.00      0.65      1.67
  TU126               89.00      0.41      0.54
  TU127               89.00      0.41      0.54
  TU128                0.00      0.00      0.00
  TU129                0.00      0.00      0.00
  TU13               132.00      0.96      3.41
  TU130               -0.00      0.00      0.00
  TU131               87.00      0.38      0.46
  TU132               75.00      0.33      0.35
  TU133              162.00      0.71      1.41
  TU134               58.00      0.63      1.97
  TU135              162.00      0.36      0.28
  TU136              162.00      0.36      0.27
  TU137              251.00      0.36      0.21
  TU138              354.00      0.50      0.39
  TU139              354.00      0.35      0.16
  TU14               353.00      0.78      1.13
  TU140              354.00      0.35      0.16
  TU141              108.00      1.82     17.96
  TU142              108.00      0.29      0.21
  TU143               -0.00      0.00      0.00
  TU144               87.00      0.94      4.11
  TU145               58.00      0.40      0.68
  TU146              145.00      0.63      1.16
  TU147              145.00      0.39      0.36
  TU148               -0.00      0.00      0.00
  TU149              111.00      0.77      2.18
  TU15                -0.00      0.00      0.00
  TU150              111.00      0.77      2.18
  TU151              256.00      0.36      0.21
  TU152               -0.00      0.00      0.00
  TU15301            256.00      0.36      0.21
  TU15302            256.00      0.36      0.21
  TU1074               0.00      0.00      0.00
  TU154              256.00      0.25      0.09
  TU155               63.00      1.06      6.69
  TU156              319.00      0.31      0.13
  TU157              427.00      0.42      0.22
  TU158                0.00      0.00      0.00
  TU159              427.00      0.42      0.23
  TU16              1988.00      0.36      0.06
  TU160                0.00      0.00      0.00
  TU161              427.00      0.42      0.23
  TU162             1082.00      0.78      0.58
  TU163             1031.00      0.74      0.54
  TU164             1082.00      0.78      0.58
  TU166               -0.00      0.00      0.00
  TU167               -0.00      0.00      0.00
  TU168                0.00      0.00      0.00
  TU169                0.00      0.00      0.00
  TU17                -0.00      0.00      0.00
  TU170                0.00      0.00      0.00
  TU171             1031.00      0.74      0.54
  TU17201             -0.00      0.00      0.00
  TU17202              0.00      0.00      0.00
  TU1011A             -0.00      0.00      0.00
  TU173               -0.00      0.00      0.00
  TU174               -0.00      0.00      0.00
  TU175               -0.00      0.00      0.00
  TU176              890.00      0.87      0.86
  TU177             1031.00      1.01      1.13
  TU178              890.00      0.87      0.86
  TU179              537.00      1.52      4.50
  TU18                 0.00      0.00      0.00
  TU180              367.00      1.04      2.23
  TU181              218.00      1.83     12.09
  TU182              367.00      1.68      7.15
  TU183               74.00      0.84      3.51
  TU184                0.00      0.00      0.00
  TU185               -0.00      0.00      0.00
  TU186              162.00      0.44      0.45
  TU187              162.00      0.36      0.28
  TU188              614.00      0.44      0.21
  TU189              614.00      0.44      0.21
  TU19                 0.00      0.00      0.00
  TU190               66.00      0.87      4.01
  TU191               74.00      1.32     10.28
  TU192                0.00      0.00      0.00
  TU193               -0.00      0.00      0.00
  TU194               -0.00      0.00      0.00
  TU195                0.00      0.00      0.00
  TU196                0.00      0.00      0.00
  TU197               -0.00      0.00      0.00
  TU198                0.00      0.00      0.00
  TU199                0.00      0.00      0.00
  TU2                170.00      1.94     16.10
  TU20                 0.00      0.00      0.00
  TU200               -0.00      0.00      0.00
  TU201                0.00      0.00      0.00
  TU203                0.00      0.00      0.00
  TU204                0.00      0.00      0.00
  TU205                0.00      0.00      0.00
  TU21                66.00      0.56      1.36
  TU22               614.00      0.34      0.11
  TU23               614.00      0.34      0.11
  TU24               614.00      0.34      0.11
  TU25               614.00      0.34      0.12
  TU26               614.00      0.60      0.44
  TU27               614.00      0.60      0.44
  TU28               614.00      0.60      0.44
  TU29               614.00      0.60      0.44
  TU3                  0.00      0.00      0.00
  TU30                 0.00      0.00      0.00
  TU31                -0.00      0.00      0.00
  TU32                 0.00      0.00      0.00
  TU33                 0.00      0.00      0.00
  TU34                 0.00      0.00      0.00
  TU35                 0.00      0.00      0.00
  TU36                 0.00      0.00      0.00
  TU37                 0.00      0.00      0.00
  TU38                 0.00      0.00      0.00
  TU39                -0.00      0.00      0.00
  TU4                256.00      0.36      0.21
  TU40                -0.00      0.00      0.00
  TU41                -0.00      0.00      0.00
  TU42                 0.00      0.00      0.00
  TU43                -0.00      0.00      0.00
  TU44                -0.00      0.00      0.00
  TU45                -0.00      0.00      0.00
  TU46                -0.00      0.00      0.00
  TU47                 0.00      0.00      0.00
  TU48                 0.00      0.00      0.00
  TU49                 0.00      0.00      0.00
  TU5                256.00      0.36      0.21
  TU50                 0.00      0.00      0.00
  TU52                 0.00      0.00      0.00
  TU53                 0.00      0.00      0.00
  TU54                 0.00      0.00      0.00
  TU55                 0.00      0.00      0.00
  TU56                 0.00      0.00      0.00
  TU57                 0.00      0.00      0.00
  TU58                55.00      0.98      5.98
  TU59                55.00      0.16      0.07
  TU6                 -0.00      0.00      0.00
  TU61                 0.00      0.00      0.00
  TU62                66.00      0.35      0.45
  TU63                 0.00      0.00      0.00
  TU65                 0.00      0.00      0.00
  TU66                66.00      0.22      0.14
  TU67               128.00      0.36      0.33
  TU68               128.00      0.36      0.33
  TU69               183.00      0.26      0.12
  TU7                  0.00      0.00      0.00
  TU70               238.00      0.34      0.19
  TU71               238.00      0.34      0.19
  TU72               108.00      0.24      0.13
  TU73               226.00      0.50      0.50
  TU74               291.00      0.64      0.80
  TU75               291.00      0.64      0.80
  TU76               376.00      0.83      1.27
  TU77               376.00      0.83      1.27
  TU78                 0.00      0.00      0.00
  TU79                 0.00      0.00      0.00
  TU8                 98.00      1.06      5.11
  TU80                59.00      1.22      9.71
  TU81                59.00      0.50      1.11
  TU82                49.00      0.87      4.85
  TU83                49.00      0.64      2.34
  TU84                 0.00      0.00      0.00
  TU85                 0.00      0.00      0.00
  TU86                 0.00      0.00      0.00
  TU87                 0.00      0.00      0.00
  TU88                49.00      0.11      0.03
  TU89                 0.00      0.00      0.00
  TU9                 54.00      0.91      5.05
  TU90                 0.00      0.00      0.00
  TU91                -0.00      0.00      0.00
  TU92                -0.00      0.00      0.00
  TU93                 0.00      0.00      0.00
  TU94                 0.00      0.00      0.00
  TU95                 0.00      0.00      0.00
  TU96                 0.00      0.00      0.00
  TU97                51.00      0.91      5.21
  TU98                51.00      0.58      1.79
  TU99                51.00      0.11      0.03
  TU4000               0.00      0.00      0.00
  TU60                66.00      1.36     11.93
  TU64                66.00      0.35      0.45
  TU51                 0.00      0.00      0.00
  2                   66.00      1.36     36.00  PBV
  3                    0.00      0.00      0.00  PBV
   
  Analysis ended Fri Sep  8 13:14:16 2023
