  Page 1                                    Fri Sep  8 13:26:23 2023

  ******************************************************************
  *                           E P A N E T                          *
  *                   Hydraulic and Water Quality                  *
  *                   Analysis for Pipe Networks                   *
  *                         Version 2.2                            *
  ******************************************************************
  
  Analysis begun Fri Sep  8 13:26:23 2023

   
  Node Results:
  ----------------------------------------------
                     Demand      Head  Pressure
  Node                 m3/h         m         m
  ----------------------------------------------
  3661                 0.00    428.94     50.80
  482                  0.00    428.83     82.83
  661                  0.00    425.47     95.47
  6610                 0.00    426.67     66.67
  6611                 0.00    427.04     92.04
  6612                 0.00    427.84     65.47
  6613                 0.00    425.20     70.20
  6615                 0.00    425.55     86.55
  6616                 0.00    425.47     64.47
  6617                 0.00    425.26     82.26
  6618                 0.00    425.51     77.51
  662                  0.00    428.56    100.56
  6620                 0.00    424.46    116.46
  6621                 0.00    425.07     97.07
  6622                 0.00    425.21     88.21
  6623                 0.00    425.35     74.35
  6624                 0.00    425.38     73.38
  6625                 0.00    389.17     77.17
  6626                 0.00    425.28    104.28
  6627                 0.00    425.47    104.47
  6628                 0.00    428.38     89.38
  6629                 0.00    428.38     88.38
  663                  0.00    428.29     87.29
  6630                 0.00    428.38     88.58
  6632                 0.00    428.41     88.41
  6633                 0.00    428.85     66.21
  6634                 0.00    428.88     57.88
  6635                 0.00    428.87     76.87
  6636                 0.00    428.87     72.87
  6637                 0.00    428.83     61.83
  6639                 0.00    427.56     67.56
  664                  0.00    428.08     80.08
  6640                 0.00    427.38     67.38
  6641                 0.00    427.70     69.02
  6642                 0.00    427.70     71.70
  6643                 0.00    428.01     76.01
  6644                 0.00    428.07     76.07
  6645                 0.00    428.09     78.09
  6646                 0.00    426.71     79.69
  6648                 0.00    426.89     80.88
  6649                 0.00    428.00     89.00
  665                  0.00    428.00     83.00
  666                  0.00    428.38     88.38
  6665                 0.00    428.19     63.05
  6666                 0.00    428.73     61.07
  667                  0.00    428.06     76.06
  668                  0.00    425.47     95.47
  669                  0.00    428.38     83.38
  1                   55.00    428.71     98.71
  10                  62.00    427.67     75.67
  100                  0.00    427.70     72.70
  100B                 0.00    427.38     69.38
  101                 64.00    425.06     72.06
  103                 51.00    426.89     87.89
  104                  0.00    426.89     87.89
  105                 99.00    425.17     70.17
  106                 54.00    425.12     70.12
  107                  0.00    425.55     86.55
  108                  0.00    425.55     86.99
  109                  0.00    425.55     88.55
  11B                  0.00    427.94     84.94
  110                  0.00    425.51     79.51
  111                  0.00    425.48     86.70
  112                  0.00    425.50     83.50
  113                  0.00    425.45    102.45
  114                 59.00    425.32     77.32
  115                 57.00    425.26     79.26
  116                  0.00    425.30     80.30
  117                  0.00    425.26     82.26
  118                  0.00    425.26     86.26
  119                  0.00    425.26    102.45
  12                   0.00    427.66     97.32
  121                  0.00    425.40     76.60
  122                  0.00    425.30     77.40
  123                  0.00    425.30     79.30
  125                  0.00    425.40     74.40
  126                  0.00    425.40     77.40
  127                  0.00    425.40     82.07
  128                  0.00    425.47     63.47
  129                  0.00    425.47     69.47
  130                  0.00    425.47     84.39
  130B                 0.00    425.47     72.47
  132                  0.00    425.47     92.47
  134                  0.00    425.47    104.47
  135                  0.00    425.47    109.47
  137                  0.00    425.47    116.47
  139                  0.00    425.47     65.47
  14                  85.00    427.18     89.18
  140                  0.00    425.47     74.47
  141                  0.00    425.47     73.47
  142                  0.00    425.47     64.47
  143                  0.00    425.47     84.50
  144                  0.00    425.47     66.47
  146                  0.00    425.33     79.33
  147                  0.00    425.28    104.28
  148                  0.00    425.32     92.32
  149                  0.00    389.17     75.96
  15                   0.00    427.04     92.04
  150                  0.00    389.03     80.96
  151                  0.00    388.73     83.49
  152                 75.00    386.47     76.45
  153                  0.00    387.24     77.24
  154                  0.00    425.00    100.00
  157                  0.00    424.46    121.46
  158A                63.00    415.80     94.80
  158B                63.00    415.78     94.78
  16B                  0.00    427.28     93.28
  160                 53.00    428.81     61.81
  162                  0.00    428.77     60.77
  163                  0.00    428.73     54.73
  164                  0.00    428.62     68.96
  165                 63.00    428.19     66.89
  166                 89.00    428.19     67.18
  167                  0.00    428.19     57.55
  169                  0.00    428.56     62.06
  17A                205.00    426.87     91.87
  170                  0.00    428.85     69.85
  17B                  0.00    426.87     91.87
  171                  0.00    428.87     76.87
  172                  0.00    428.87     88.87
  18B                  0.00    426.87    101.87
  19                   0.00    428.85     70.85
  2                    0.00    428.59    102.59
  20                   0.00    428.94     64.94
  2002                 0.00    428.38     78.38
  2003                 0.00    428.38     78.38
  21                   0.00    425.57     63.97
  22                   0.00    425.57     63.97
  222                  0.00    425.55     75.55
  24                   0.00    425.55     81.55
  25                   0.00    425.53     80.53
  26                   0.00    425.51     77.51
  27                   0.00    425.52     75.52
  28                   0.00    425.51     75.51
  29                   0.00    425.48     69.48
  3                    0.00    428.45     88.10
  30                   0.00    425.47     64.47
  3002                 0.00    428.94     42.94
  3004                 0.00    428.94     42.94
  3005                 0.00    428.94     42.94
  3008                 0.00    428.94     43.94
  3012                 0.00    428.94     58.21
  3013                 0.00    428.94     64.01
  3016                 0.00    428.94     63.94
  3017                 0.00    428.94     46.94
  3018                 0.00    428.89     51.89
  3019                 0.00    428.94     59.55
  3020                 0.00    428.94     60.83
  3024                 0.00    428.94     64.00
  31                   0.00    425.41     67.62
  3152                 0.00    428.94     62.74
  32                   0.00    425.44     67.44
  34                   0.00    425.35     74.33
  35                   0.00    425.21     88.21
  36                   0.00    425.07     97.07
  39                   0.00    424.80    111.80
  41                   0.00    424.26    117.26
  46                   0.00    428.89     52.89
  47                   0.00    428.56     70.38
  48                   0.00    428.83     84.83
  49                   0.00    428.83     76.83
  5                    0.00    428.36     81.36
  52                   0.00    428.83     77.83
  53                   0.00    428.88     72.88
  54                   0.00    428.80     83.80
  55                   0.00    428.71     98.71
  56                   0.00    428.71     94.71
  58                   0.00    428.71     95.71
  59                   0.00    428.71     99.71
  6                    0.00    428.07     76.07
  60                   0.00    428.45     83.45
  61                   0.00    428.45     89.45
  62                 109.00    423.59     69.59
  64                   0.00    428.50     97.50
  65                  71.00    428.15     88.15
  66                  85.00    428.41     89.41
  67                 110.00    428.38     96.38
  68                   0.00    428.38     89.38
  69                   0.00    428.38     77.38
  7                   61.00    428.17     75.17
  70                   0.00    428.38     88.38
  71                   0.00    428.38     91.38
  72                   0.00    427.98     71.98
  73                   0.00    428.00     73.00
  77                   0.00    427.98     71.98
  78                   0.00    427.98     87.84
  79                   0.00    428.16     75.16
  8                   62.00    427.88     77.88
  80                  93.00    427.97     78.97
  81                   0.00    426.89     67.89
  82                 104.00    426.19     68.19
  85                   0.00    428.38     89.38
  86                   0.00    428.38     91.38
  87                   0.00    427.89     67.89
  88                   0.00    427.84     74.84
  89                  92.00    427.73     60.73
  90                   0.00    427.70     71.70
  91                   0.00    427.56     55.56
  92                   0.00    426.67     66.67
  91B                180.00    426.32     66.32
  94                   0.00    428.00     89.00
  95                   0.00    428.00     85.00
  97                   0.00    428.00     97.00
  99                  51.00    427.34     77.34
  74                   0.00    427.99     69.28
  1074                 0.00    427.99     69.99
  11A                  0.00    428.00     85.00
  1011                 0.00    428.00     85.00
  4                    0.00    425.17    113.17
  9                    0.00    424.46    114.46
  0                -1898.00    429.00      0.00  Reservoir
  balsa             -317.00    425.57     -0.00  Reservoir
   
   
  Link Results:
  ----------------------------------------------
                       Flow  Velocity  Headloss
  Link                 m3/h       m/s    /1000m
  ----------------------------------------------
  TU1                 -0.00      0.00      0.00
  TU10                99.00      1.07      5.20
  TU100              110.00      0.24      0.14
  TU101              195.00      0.28      0.13
  TU102               71.00      1.26      9.53
  TU103              266.00      0.38      0.23
  TU104              266.00      0.38      0.23
  TU105             1372.00      0.60      0.27
  TU106             1372.00      0.60      0.27
  TU107                0.00      0.00      0.00
  TU108             1372.00      0.60      0.27
  TU109             1638.00      0.72      0.37
  TU11               217.00      0.99      2.72
  TU110             1638.00      0.72      0.37
  TU111                0.00      0.00      0.00
  TU112               -0.00      0.00      0.00
  TU113                0.00      0.00      0.00
  TU114                0.00      0.00      0.00
  TU115             1693.00      0.60      0.24
  TU116             1693.00      0.60      0.24
  TU117               -0.00      0.00      0.00
  TU118                0.00      0.00      0.00
  TU119             1693.00      0.60      0.24
  TU12                 0.00      0.00      0.00
  TU120             1693.00      0.60      0.24
  TU121                0.00      0.00      0.00
  TU122                0.00      0.00      0.00
  TU123               -0.00      0.00      0.00
  TU124                0.00      0.00      0.00
  TU125               -0.00      0.00      0.00
  TU126               -0.00      0.00      0.00
  TU127               -0.00      0.00      0.00
  TU128                0.00      0.00      0.00
  TU129                0.00      0.00      0.00
  TU13                51.00      0.37      0.61
  TU130               63.00      0.27      0.26
  TU131              152.00      0.66      1.26
  TU132                0.00      0.00      0.00
  TU133              152.00      0.66      1.26
  TU134              180.00      1.94     15.60
  TU135              152.00      0.34      0.25
  TU136              205.00      0.45      0.42
  TU137              205.00      0.29      0.14
  TU138              205.00      0.29      0.14
  TU139              205.00      0.20      0.06
  TU14               353.00      0.78      1.13
  TU140              205.00      0.20      0.06
  TU141              109.00      1.83     18.27
  TU142              109.00      0.29      0.22
  TU143               -0.00      0.00      0.00
  TU144               -0.00      0.00      0.00
  TU145              180.00      1.25      5.28
  TU146              180.00      0.78      1.71
  TU147              180.00      0.49      0.54
  TU148               -0.00      0.00      0.00
  TU149               -0.00      0.00      0.00
  TU15                -0.00      0.00      0.00
  TU150               -0.00      0.00      0.00
  TU151              180.00      0.25      0.11
  TU152               51.00      0.58      1.79
  TU15301            323.00      0.46      0.33
  TU15302            323.00      0.46      0.33
  TU1074               0.00      0.00      0.00
  TU154              323.00      0.32      0.14
  TU155               62.00      1.04      6.50
  TU156              385.00      0.38      0.19
  TU157              494.00      0.49      0.29
  TU158                0.00      0.00      0.00
  TU159              494.00      0.49      0.29
  TU16              1898.00      0.34      0.06
  TU160               62.00      1.10      7.44
  TU161              556.00      0.55      0.36
  TU162              816.00      0.59      0.35
  TU163              755.00      0.54      0.30
  TU164              755.00      0.54      0.30
  TU166               -0.00      0.00      0.00
  TU167              104.00      1.37      9.19
  TU168              104.00      1.37      9.19
  TU169              104.00      0.88      3.11
  TU17                -0.00      0.00      0.00
  TU170              197.00      0.90      2.28
  TU171              558.00      0.40      0.17
  TU17201             -0.00      0.00      0.00
  TU17202              0.00      0.00      0.00
  TU1011A             -0.00      0.00      0.00
  TU173               -0.00      0.00      0.00
  TU174               -0.00      0.00      0.00
  TU175               -0.00      0.00      0.00
  TU176              558.00      0.55      0.37
  TU177              558.00      0.55      0.37
  TU178              558.00      0.55      0.37
  TU179              205.00      0.58      0.77
  TU18                 0.00      0.00      0.00
  TU180              205.00      0.58      0.77
  TU181                0.00      0.00      0.00
  TU182                0.00      0.00      0.00
  TU183                0.00      0.00      0.00
  TU184                0.00      0.00      0.00
  TU185              116.00      0.26      0.15
  TU186              152.00      0.41      0.40
  TU187              152.00      0.34      0.25
  TU188              317.00      0.23      0.06
  TU189              317.00      0.23      0.06
  TU19                 0.00      0.00      0.00
  TU190               75.00      0.99      5.06
  TU191               -0.00      0.00      0.00
  TU192                0.00      0.00      0.00
  TU193                0.00      0.00      0.00
  TU194               -0.00      0.00      0.00
  TU195                0.00      0.00      0.00
  TU196                0.00      0.00      0.00
  TU197               -0.00      0.00      0.00
  TU198                0.00      0.00      0.00
  TU199                0.00      0.00      0.00
  TU2                  0.00      0.00      0.00
  TU20                -0.00      0.00      0.00
  TU200               -0.00      0.00      0.00
  TU201                0.00      0.00      0.00
  TU203                0.00      0.00      0.00
  TU204                0.00      0.00      0.00
  TU205                0.00      0.00      0.00
  TU21                75.00      0.63      1.72
  TU22               317.00      0.18      0.03
  TU23               317.00      0.18      0.03
  TU24               317.00      0.18      0.03
  TU25               317.00      0.18      0.00
  TU26               201.00      0.20      0.06
  TU27               201.00      0.20      0.06
  TU28               201.00      0.20      0.06
  TU29               201.00      0.20      0.06
  TU3                  0.00      0.00      0.00
  TU30                 0.00      0.00      0.00
  TU31                -0.00      0.00      0.00
  TU32                 0.00      0.00      0.00
  TU33                 0.00      0.00      0.00
  TU34                57.00      0.26      0.24
  TU35                 0.00      0.00      0.00
  TU36                 0.00      0.00      0.00
  TU37                57.00      0.16      0.08
  TU38               116.00      0.33      0.28
  TU39                -0.00      0.00      0.00
  TU4                323.00      0.46      0.33
  TU40                 0.00      0.00      0.00
  TU41               116.00      0.26      0.15
  TU42                 0.00      0.00      0.00
  TU43               116.00      0.16      0.05
  TU44               116.00      0.16      0.05
  TU45               116.00      0.16      0.05
  TU46               116.00      0.16      0.05
  TU47                -0.00      0.00      0.00
  TU48               126.00      1.66     13.08
  TU49               126.00      1.06      4.41
  TU5                323.00      0.46      0.33
  TU50                 0.00      0.00      0.00
  TU52               126.00      0.42      0.46
  TU53               126.00      0.42      0.46
  TU54                 0.00      0.00      0.00
  TU55               126.00      0.42      0.46
  TU56                 0.00      0.00      0.00
  TU57               126.00      0.36      0.32
  TU58                 0.00      0.00      0.00
  TU59               126.00      0.36      0.32
  TU6                116.00      0.16      0.05
  TU61                 0.00      0.00      0.00
  TU62                75.00      0.40      0.57
  TU63                 0.00      0.00      0.00
  TU65                 0.00      0.00      0.00
  TU66                75.00      0.25      0.18
  TU67                75.00      0.21      0.13
  TU68                75.00      0.21      0.13
  TU69               201.00      0.28      0.14
  TU7                  0.00      0.00      0.00
  TU70               201.00      0.28      0.14
  TU71               201.00      0.28      0.14
  TU72                 0.00      0.00      0.00
  TU73                 0.00      0.00      0.00
  TU74                 0.00      0.00      0.00
  TU75                 0.00      0.00      0.00
  TU76                 0.00      0.00      0.00
  TU77                 0.00      0.00      0.00
  TU78                 0.00      0.00      0.00
  TU79                 0.00      0.00      0.00
  TU8                 64.00      0.69      2.35
  TU80                 0.00      0.00      0.00
  TU81                 0.00      0.00      0.00
  TU82                 0.00      0.00      0.00
  TU83                 0.00      0.00      0.00
  TU84                 0.00      0.00      0.00
  TU85                 0.00      0.00      0.00
  TU86                 0.00      0.00      0.00
  TU87                 0.00      0.00      0.00
  TU88                 0.00      0.00      0.00
  TU89                 0.00      0.00      0.00
  TU9                 54.00      0.91      5.05
  TU90                 0.00      0.00      0.00
  TU91                -0.00      0.00      0.00
  TU92                -0.00      0.00      0.00
  TU93                 0.00      0.00      0.00
  TU94                 0.00      0.00      0.00
  TU95                 0.00      0.00      0.00
  TU96                 0.00      0.00      0.00
  TU97                 0.00      0.00      0.00
  TU98                 0.00      0.00      0.00
  TU99                 0.00      0.00      0.00
  TU4000              63.00      0.83      3.68
  TU60                75.00      1.55     15.07
  TU64                75.00      0.40      0.57
  TU51               126.00      0.67      1.45
  2                   75.00      1.55     36.00  PBV
  3                  126.00      2.60      0.00  PBV
   
  Analysis ended Fri Sep  8 13:26:23 2023
