  Page 1                                    Fri Sep  8 13:20:06 2023

  ******************************************************************
  *                           E P A N E T                          *
  *                   Hydraulic and Water Quality                  *
  *                   Analysis for Pipe Networks                   *
  *                         Version 2.2                            *
  ******************************************************************
  
  Analysis begun Fri Sep  8 13:20:06 2023

   
  Node Results:
  ----------------------------------------------
                     Demand      Head  Pressure
  Node                 m3/h         m         m
  ----------------------------------------------
  3661                 0.00    428.88     50.74
  482                  0.00    428.31     82.31
  661                  0.00    423.33     93.33
  6610                 0.00    427.74     67.74
  6611                 0.00    424.94     89.94
  6612                 0.00    427.84     65.47
  6613                 0.00    422.93     67.93
  6615                 0.00    423.99     84.99
  6616                 0.00    423.51     62.51
  6617                 0.00    423.65     80.65
  6618                 0.00    423.98     75.98
  662                  0.00    428.35    100.35
  6620                 0.00    422.43    114.43
  6621                 0.00    422.94     94.94
  6622                 0.00    423.06     86.06
  6623                 0.00    423.17     72.17
  6624                 0.00    423.23     71.23
  6625                 0.00    386.70     74.70
  6626                 0.00    422.89    101.89
  6627                 0.00    423.33    102.33
  6628                 0.00    426.48     87.48
  6629                 0.00    427.75     87.75
  663                  0.00    428.00     87.00
  6630                 0.00    428.05     88.25
  6632                 0.00    428.19     88.19
  6633                 0.00    428.75     66.11
  6634                 0.00    428.79     57.79
  6635                 0.00    428.68     76.68
  6636                 0.00    428.68     72.68
  6637                 0.00    428.58     61.58
  6639                 0.00    427.79     67.79
  664                  0.00    427.57     79.57
  6640                 0.00    427.74     67.74
  6641                 0.00    427.82     69.14
  6642                 0.00    427.82     71.82
  6643                 0.00    427.87     75.87
  6644                 0.00    427.89     75.89
  6645                 0.00    427.91     77.91
  6646                 0.00    424.78     77.76
  6648                 0.00    424.92     78.91
  6649                 0.00    426.62     87.62
  665                  0.00    427.33     82.33
  666                  0.00    428.05     88.05
  6665                 0.00    428.36     63.22
  6666                 0.00    428.52     60.86
  667                  0.00    427.89     75.89
  668                  0.00    423.33     93.33
  669                  0.00    427.73     82.73
  1                   69.00    428.56     98.56
  10                  69.00    427.46     75.46
  100                  0.00    427.82     72.82
  100B                82.00    427.26     69.26
  101                135.00    422.40     69.40
  103                  0.00    425.59     86.59
  104                 54.00    425.57     86.57
  105                 81.00    422.91     67.91
  106                 55.00    422.85     67.85
  107                  0.00    423.99     84.99
  108                 57.00    423.19     84.63
  109                  0.00    423.81     86.81
  11B                  0.00    427.22     84.22
  110                  0.00    423.97     77.97
  111                  0.00    423.92     85.14
  112                  0.00    423.95     81.95
  113                  0.00    423.86    100.86
  114                 47.00    423.70     75.70
  115                 54.00    423.65     77.65
  116                  0.00    423.68     78.68
  117                  0.00    423.65     80.65
  118                  0.00    423.65     84.65
  119                  0.00    423.65    100.84
  12                   0.00    426.69     96.35
  121                  0.00    423.77     74.97
  122                  0.00    423.68     75.78
  123                  0.00    423.68     77.68
  125                  0.00    423.76     72.76
  126                 63.00    423.66     75.66
  127                  0.00    423.66     80.33
  128                 62.00    423.49     61.49
  129                  0.00    423.38     67.38
  130                136.00    423.33     82.25
  130B                 0.00    423.36     70.36
  132                  0.00    423.33     90.33
  134                  0.00    423.33    102.33
  135                  0.00    423.33    107.33
  137                  0.00    423.33    114.33
  139                  0.00    423.33     63.33
  14                   0.00    425.91     87.91
  140                  0.00    423.33     72.33
  141                  0.00    423.33     71.33
  142                  0.00    423.33     62.33
  143                  0.00    423.33     82.36
  144                 78.00    423.42     64.42
  146                  0.00    423.06     77.06
  147                 56.00    422.66    101.66
  148                  0.00    423.04     90.04
  149                  0.00    386.70     73.49
  15                   0.00    424.94     89.94
  150                 97.00    386.48     78.41
  151                  0.00    386.48     81.24
  152                  0.00    386.48     76.46
  153                  0.00    386.48     76.48
  154                  0.00    422.89     97.89
  157                  0.00    422.43    119.43
  158A                57.00    415.22     94.22
  158B                57.00    415.21     94.21
  16B                  0.00    425.99     91.99
  160                 55.00    428.58     61.58
  162                  0.00    428.55     60.55
  163                  0.00    428.52     54.52
  164                  0.00    428.46     68.81
  165                  0.00    428.36     67.06
  166                 60.00    428.36     67.35
  167                  0.00    428.36     57.72
  169                 52.00    428.35     61.85
  17A                234.00    424.21     89.21
  170                100.00    428.62     69.62
  17B                  0.00    424.01     89.01
  171                  0.00    428.68     76.68
  172                  0.00    428.68     88.68
  18B                225.00    417.99     92.99
  19                   0.00    428.75     70.75
  2                    0.00    428.40    102.40
  20                   0.00    428.88     64.88
  2002                 0.00    427.73     77.73
  2003                 0.00    427.73     77.73
  21                   0.00    424.30     62.70
  22                   0.00    424.30     62.70
  222                  0.00    424.21     74.21
  24                   0.00    424.15     80.15
  25                   0.00    424.07     79.07
  26                   0.00    423.98     75.98
  27                   0.00    423.99     73.99
  28                   0.00    423.88     73.88
  29                  55.00    423.56     67.56
  3                   47.00    428.19     87.84
  30                   0.00    423.52     62.52
  3002                 0.00    428.88     42.88
  3004                 0.00    428.88     42.88
  3005                 0.00    428.88     42.88
  3008                 0.00    428.88     43.88
  3012                 0.00    428.88     58.15
  3013                 0.00    428.88     63.95
  3016                 0.00    428.88     63.88
  3017                98.00    428.88     46.88
  3018                69.00    428.50     51.50
  3019                 0.00    428.88     59.49
  3020                 0.00    428.88     60.77
  3024                 0.00    428.88     63.94
  31                  43.00    423.32     65.53
  3152                 0.00    428.88     62.68
  32                   0.00    423.40     65.40
  34                  72.00    423.00     71.98
  35                   0.00    423.06     86.06
  36                   0.00    422.94     94.94
  39                   0.00    422.72    109.72
  41                   0.00    422.26    115.26
  46                   0.00    428.73     52.73
  47                   0.00    428.43     70.25
  48                   0.00    428.20     84.20
  49                   0.00    427.33     75.33
  5                    0.00    428.09     81.09
  52                  83.00    427.30     76.30
  53                 113.00    426.77     70.77
  54                   0.00    428.68     83.68
  55                   0.00    428.56     98.56
  56                   0.00    428.56     94.56
  58                   0.00    428.56     95.56
  59                   0.00    428.56     99.56
  6                    0.00    427.89     75.89
  60                   0.00    425.79     80.79
  61                  81.00    424.63     85.63
  62                 103.00    423.86     69.86
  64                   0.00    428.29     97.29
  65                   0.00    428.19     88.19
  66                  73.00    428.19     89.19
  67                   0.00    428.11     96.11
  68                   0.00    428.05     89.05
  69                   0.00    428.05     77.05
  7                    0.00    427.76     74.76
  70                   0.00    427.65     87.65
  71                 149.00    422.86     85.86
  72                   0.00    427.82     71.82
  73                   0.00    427.87     72.87
  77                   0.00    427.82     71.82
  78                   0.00    427.82     87.68
  79                   0.00    427.76     74.76
  8                   62.00    427.69     77.69
  80                   0.00    427.49     78.49
  81                  76.00    422.88     63.88
  82                  91.00    424.37     66.37
  85                  56.00    426.23     87.23
  86                   0.00    426.48     89.48
  87                   0.00    427.85     67.85
  88                  58.00    423.34     70.34
  89                   0.00    427.83     60.83
  90                   0.00    427.82     71.82
  91                   0.00    427.79     55.79
  92                   0.00    427.74     67.74
  91B                  0.00    427.74     67.74
  94                   0.00    426.62     87.62
  95                   0.00    425.05     82.05
  97                   0.00    423.98     92.98
  99                   0.00    427.83     77.83
  74                   0.00    427.87     69.16
  1074                 0.00    427.87     69.87
  11A                216.00    423.49     80.49
  1011                 0.00    423.98     80.98
  4                    0.00    422.70    110.70
  9                    0.00    422.43    112.43
  0                -2646.00    429.00      0.00  Reservoir
  balsa             -934.00    424.30      0.00  Reservoir
   
   
  Link Results:
  ----------------------------------------------
                       Flow  Velocity  Headloss
  Link                 m3/h       m/s    /1000m
  ----------------------------------------------
  TU1                 -0.00      0.00      0.00
  TU10                81.00      0.87      3.61
  TU100              205.00      0.45      0.42
  TU101              278.00      0.39      0.25
  TU102                0.00      0.00      0.00
  TU103              278.00      0.39      0.25
  TU104              278.00      0.39      0.25
  TU105             1541.00      0.67      0.33
  TU106             1541.00      0.67      0.33
  TU107                0.00      0.00      0.00
  TU108             1669.00      0.73      0.38
  TU109             1947.00      0.85      0.51
  TU11               271.00      1.24      4.09
  TU110             1947.00      0.85      0.51
  TU111                0.00      0.00      0.00
  TU112               -0.00      0.00      0.00
  TU113                0.00      0.00      0.00
  TU114                0.00      0.00      0.00
  TU115             2016.00      0.71      0.32
  TU116             2016.00      0.71      0.32
  TU117              113.00      1.22      6.62
  TU118                0.00      0.00      0.00
  TU119             2016.00      0.71      0.32
  TU12                54.00      0.62      1.98
  TU120             2129.00      0.75      0.36
  TU121                0.00      0.00      0.00
  TU122                0.00      0.00      0.00
  TU123               -0.00      0.00      0.00
  TU124               83.00      0.95      4.32
  TU125               83.00      0.61      1.47
  TU126               83.00      0.38      0.47
  TU127               83.00      0.38      0.47
  TU128                0.00      0.00      0.00
  TU129                0.00      0.00      0.00
  TU13                54.00      0.39      0.68
  TU130               -0.00      0.00      0.00
  TU131               60.00      0.26      0.24
  TU132               52.00      0.23      0.18
  TU133              112.00      0.49      0.72
  TU134               -0.00      0.00      0.00
  TU135              112.00      0.25      0.14
  TU136              167.00      0.37      0.29
  TU137              250.00      0.35      0.21
  TU138              350.00      0.50      0.38
  TU139              350.00      0.34      0.16
  TU14               325.00      0.72      0.97
  TU140              419.00      0.41      0.22
  TU141              103.00      1.73     16.46
  TU142              103.00      0.28      0.20
  TU143               -0.00      0.00      0.00
  TU144               82.00      0.89      3.69
  TU145               -0.00      0.00      0.00
  TU146               82.00      0.36      0.41
  TU147               82.00      0.22      0.13
  TU148                0.00      0.00      0.00
  TU149               -0.00      0.00      0.00
  TU15                -0.00      0.00      0.00
  TU150               -0.00      0.00      0.00
  TU151               82.00      0.12      0.03
  TU152                0.00      0.00      0.00
  TU15301            140.00      0.20      0.07
  TU15302            140.00      0.20      0.07
  TU1074               0.00      0.00      0.00
  TU154              140.00      0.14      0.03
  TU155               69.00      1.16      7.90
  TU156              209.00      0.21      0.06
  TU157              312.00      0.31      0.13
  TU158                0.00      0.00      0.00
  TU159              312.00      0.31      0.13
  TU16              2646.00      0.48      0.10
  TU160               62.00      1.10      7.44
  TU161              374.00      0.37      0.18
  TU162             1167.00      0.84      0.67
  TU163             1167.00      0.84      0.67
  TU164             1167.00      0.84      0.67
  TU166               76.00      1.57     15.45
  TU167               91.00      1.20      7.20
  TU168               91.00      1.20      7.20
  TU169              167.00      1.41      7.40
  TU17                57.00      1.01      6.38
  TU170              167.00      0.76      1.69
  TU171             1000.00      0.72      0.51
  TU17201            216.00      2.84     35.49
  TU17202              0.00      0.00      0.00
  TU1011A            216.00      2.84     35.49
  TU173              216.00      1.58      8.42
  TU174               -0.00      0.00      0.00
  TU175              216.00      0.99      2.70
  TU176              784.00      0.77      0.68
  TU177              784.00      0.77      0.68
  TU178              784.00      0.77      0.68
  TU179              459.00      1.30      3.37
  TU18                57.00      0.65      2.18
  TU180              459.00      1.30      3.37
  TU181              225.00      1.89     12.82
  TU182              225.00      1.03      2.91
  TU183               81.00      0.92      4.13
  TU184                0.00      0.00      0.00
  TU185              164.00      0.36      0.28
  TU186              112.00      0.30      0.23
  TU187              112.00      0.25      0.14
  TU188              877.00      0.63      0.40
  TU189              877.00      0.63      0.40
  TU19                -0.00      0.00      0.00
  TU190               -0.00      0.00      0.00
  TU191               81.00      1.44     12.13
  TU192                0.00      0.00      0.00
  TU193                0.00      0.00      0.00
  TU194               -0.00      0.00      0.00
  TU195                0.00      0.00      0.00
  TU196                0.00      0.00      0.00
  TU197               -0.00      0.00      0.00
  TU198                0.00      0.00      0.00
  TU199                0.00      0.00      0.00
  TU2                  0.00      0.00      0.00
  TU20                57.00      0.42      0.74
  TU200               -0.00      0.00      0.00
  TU201                0.00      0.00      0.00
  TU203               69.00      1.16      7.90
  TU204                0.00      0.00      0.00
  TU205                0.00      0.00      0.00
  TU21                -0.00      0.00      0.00
  TU22               934.00      0.52      0.23
  TU23               934.00      0.52      0.23
  TU24               934.00      0.52      0.23
  TU25               934.00      0.52      0.25
  TU26               658.00      0.65      0.50
  TU27               658.00      0.65      0.50
  TU28               713.00      0.70      0.57
  TU29               713.00      0.70      0.57
  TU3                 58.00      0.98      5.75
  TU30                 0.00      0.00      0.00
  TU31                 0.00      0.00      0.00
  TU32                 0.00      0.00      0.00
  TU33                 0.00      0.00      0.00
  TU34                54.00      0.25      0.22
  TU35                 0.00      0.00      0.00
  TU36                 0.00      0.00      0.00
  TU37                54.00      0.15      0.07
  TU38               101.00      0.29      0.21
  TU39                -0.00      0.00      0.00
  TU4                 82.00      0.12      0.03
  TU40                63.00      0.46      0.89
  TU41               164.00      0.36      0.28
  TU42                 0.00      0.00      0.00
  TU43               164.00      0.23      0.10
  TU44               164.00      0.23      0.10
  TU45               164.00      0.23      0.10
  TU46               164.00      0.23      0.10
  TU47                -0.00      0.00      0.00
  TU48               114.00      1.50     10.88
  TU49               114.00      0.96      3.68
  TU5                140.00      0.20      0.07
  TU50                 0.00      0.00      0.00
  TU52               114.00      0.38      0.39
  TU53               114.00      0.38      0.39
  TU54                 0.00      0.00      0.00
  TU55               114.00      0.38      0.39
  TU56                 0.00      0.00      0.00
  TU57               114.00      0.32      0.27
  TU58                72.00      1.28      9.78
  TU59               186.00      0.53      0.65
  TU6                164.00      0.23      0.10
  TU61                 0.00      0.00      0.00
  TU62                97.00      0.52      0.90
  TU63                 0.00      0.00      0.00
  TU65                56.00      1.15      8.83
  TU66               153.00      0.51      0.66
  TU67               153.00      0.43      0.45
  TU68               153.00      0.43      0.45
  TU69               339.00      0.48      0.36
  TU7                  0.00      0.00      0.00
  TU70               382.00      0.54      0.44
  TU71               382.00      0.54      0.44
  TU72                 0.00      0.00      0.00
  TU73               136.00      0.30      0.20
  TU74               136.00      0.30      0.20
  TU75               136.00      0.30      0.20
  TU76               214.00      0.47      0.46
  TU77               276.00      0.61      0.72
  TU78                 0.00      0.00      0.00
  TU79                 0.00      0.00      0.00
  TU8                135.00      1.46      9.18
  TU80                 0.00      0.00      0.00
  TU81                 0.00      0.00      0.00
  TU82                 0.00      0.00      0.00
  TU83                 0.00      0.00      0.00
  TU84                 0.00      0.00      0.00
  TU85                 0.00      0.00      0.00
  TU86                 0.00      0.00      0.00
  TU87                 0.00      0.00      0.00
  TU88                 0.00      0.00      0.00
  TU89                56.00      1.00      6.18
  TU9                 55.00      0.93      5.22
  TU90                 0.00      0.00      0.00
  TU91                56.00      0.64      2.11
  TU92                56.00      0.26      0.23
  TU93                56.00      0.16      0.07
  TU94               149.00      1.70     12.62
  TU95               205.00      0.58      0.77
  TU96                 0.00      0.00      0.00
  TU97                 0.00      0.00      0.00
  TU98                 0.00      0.00      0.00
  TU99               205.00      0.45      0.42
  TU4000              57.00      0.75      3.07
  TU60                -0.00      0.00      0.00
  TU64                97.00      0.52      0.90
  TU51               114.00      0.61      1.21
  2                   97.00      2.00     36.00  PBV
  3                  114.00      2.35      0.00  PBV
   
  Analysis ended Fri Sep  8 13:20:06 2023
