  Page 1                                    Fri Sep  8 13:06:14 2023

  ******************************************************************
  *                           E P A N E T                          *
  *                   Hydraulic and Water Quality                  *
  *                   Analysis for Pipe Networks                   *
  *                         Version 2.2                            *
  ******************************************************************
  
  Analysis begun Fri Sep  8 13:06:14 2023

   
  Node Results:
  ----------------------------------------------
                     Demand      Head  Pressure
  Node                 m3/h         m         m
  ----------------------------------------------
  3661                 0.00    429.00     50.86
  482                  0.00    429.00     83.00
  661                  0.00    426.47     96.47
  6610                 0.00    428.94     68.94
  6611                 0.00    428.64     93.64
  6612                 0.00    428.94     66.57
  6613                 0.00    428.77     73.77
  6615                 0.00    427.01     88.01
  6616                 0.00    426.82     65.82
  6617                 0.00    426.97     83.97
  6618                 0.00    426.97     78.97
  662                  0.00    428.96    100.96
  6620                 0.00    426.80    118.80
  6621                 0.00    426.80     98.80
  6622                 0.00    426.80     89.80
  6623                 0.00    426.80     75.80
  6624                 0.00    426.81     74.81
  6625                 0.00    390.81     78.81
  6626                 0.00    426.81    105.81
  6627                 0.00    426.47    105.47
  6628                 0.00    428.43     89.43
  6629                 0.00    428.79     88.79
  663                  0.00    428.94     87.94
  6630                 0.00    428.89     89.09
  6632                 0.00    428.93     88.93
  6633                 0.00    428.99     66.35
  6634                 0.00    428.99     57.99
  6635                 0.00    429.00     77.00
  6636                 0.00    429.00     73.00
  6637                 0.00    429.00     62.00
  6639                 0.00    428.94     68.94
  664                  0.00    428.91     80.91
  6640                 0.00    428.94     68.94
  6641                 0.00    428.94     70.26
  6642                 0.00    428.94     72.94
  6643                 0.00    428.94     76.94
  6644                 0.00    428.94     76.94
  6645                 0.00    428.94     78.94
  6646                 0.00    428.91     81.89
  6648                 0.00    428.91     82.90
  6649                 0.00    428.89     89.89
  665                  0.00    428.89     83.89
  666                  0.00    428.89     88.89
  6665                 0.00    429.00     63.86
  6666                 0.00    429.00     61.34
  667                  0.00    428.94     76.94
  668                  0.00    426.47     96.47
  669                  0.00    428.72     83.72
  1                    0.00    428.98     98.98
  10                  64.00    428.57     76.57
  100                  0.00    428.94     73.94
  100B                 0.00    428.94     70.94
  101                  0.00    428.77     75.77
  103                  0.00    428.77     89.77
  104                  0.00    428.77     89.77
  105                  0.00    428.77     73.77
  106                  0.00    428.77     73.77
  107                  0.00    427.01     88.01
  108                  0.00    427.01     88.45
  109                  0.00    427.01     90.01
  11B                  0.00    428.88     85.88
  110                  0.00    426.97     80.97
  111                  0.00    426.97     88.19
  112                  0.00    426.97     84.97
  113                  0.00    426.97    103.97
  114                  0.00    426.97     78.97
  115                  0.00    426.97     80.97
  116                  0.00    426.97     81.97
  117                  0.00    426.97     83.97
  118                  0.00    426.97     87.97
  119                  0.00    426.97    104.16
  12                 118.00    428.80     98.46
  121                  0.00    426.97     78.17
  122                  0.00    426.97     79.07
  123                  0.00    426.97     80.97
  125                  0.00    426.97     75.97
  126                  0.00    426.97     78.97
  127                  0.00    426.97     83.64
  128                  0.00    426.81     64.81
  129                  0.00    426.56     70.56
  130                162.00    426.47     85.39
  130B                65.00    426.51     73.51
  132                  0.00    426.47     93.47
  134                  0.00    426.47    105.47
  135                  0.00    426.47    110.47
  137                  0.00    426.47    117.47
  139                  0.00    426.47     66.47
  14                   0.00    428.77     90.77
  140                  0.00    426.47     75.47
  141                  0.00    426.47     74.47
  142                  0.00    426.47     65.47
  143                  0.00    426.47     85.50
  144                 85.00    426.67     67.67
  146                  0.00    426.81     80.81
  147                  0.00    426.81    105.81
  148                  0.00    426.81     93.81
  149                  0.00    390.81     77.60
  15                   0.00    428.64     93.64
  150                  0.00    390.81     82.74
  151                  0.00    390.81     85.57
  152                  0.00    390.81     80.79
  153                  0.00    390.81     80.81
  154                  0.00    426.80    101.80
  157                  0.00    426.80    123.80
  158A                 0.00    426.80    105.80
  158B                 0.00    426.80    105.80
  16B                  0.00    428.77     94.77
  160                  0.00    429.00     62.00
  162                  0.00    429.00     61.00
  163                  0.00    429.00     55.00
  164                  0.00    429.00     69.34
  165                  0.00    429.00     67.70
  166                  0.00    429.00     67.99
  167                  0.00    429.00     58.36
  169                  0.00    429.00     62.50
  17A                147.00    428.55     93.55
  170                  0.00    429.00     70.00
  17B                  0.00    428.55     93.55
  171                  0.00    429.00     77.00
  172                  0.00    429.00     89.00
  18B                  0.00    428.55    103.55
  19                   0.00    428.99     70.99
  2                    0.00    428.97    102.97
  20                   0.00    429.00     65.00
  2002                 0.00    428.72     78.72
  2003                 0.00    428.72     78.72
  21                   0.00    427.04     65.44
  22                   0.00    427.04     65.44
  222                  0.00    427.02     77.02
  24                   0.00    427.01     83.01
  25                   0.00    426.99     81.99
  26                   0.00    426.97     78.97
  27                   0.00    426.97     76.97
  28                   0.00    426.94     76.94
  29                   0.00    426.84     70.84
  3                    0.00    428.95     88.60
  30                   0.00    426.83     65.83
  3002                 0.00    429.00     43.00
  3004                 0.00    429.00     43.00
  3005                 0.00    429.00     43.00
  3008                 0.00    429.00     44.00
  3012                 0.00    429.00     58.27
  3013                 0.00    429.00     64.07
  3016                 0.00    429.00     64.00
  3017                 0.00    429.00     47.00
  3018                 0.00    429.00     52.00
  3019                 0.00    429.00     59.61
  3020                 0.00    429.00     60.89
  3024                 0.00    429.00     64.06
  31                   0.00    426.82     69.03
  3152                 0.00    429.00     62.80
  32                   0.00    426.82     68.82
  34                  62.00    426.67     75.65
  35                   0.00    426.80     89.80
  36                   0.00    426.80     98.80
  39                   0.00    426.80    113.80
  41                   0.00    426.80    119.80
  46                   0.00    429.00     53.00
  47                   0.00    429.00     70.82
  48                   0.00    429.00     85.00
  49                   0.00    429.00     77.00
  5                    0.00    428.95     81.95
  52                   0.00    429.00     78.00
  53                   0.00    428.99     72.99
  54                   0.00    428.98     83.98
  55                   0.00    428.98     98.98
  56                   0.00    428.98     94.98
  58                   0.00    428.98     95.98
  59                   0.00    428.98     99.98
  6                    0.00    428.94     76.94
  60                   0.00    428.95     83.95
  61                   0.00    428.95     89.95
  62                   0.00    428.94     74.94
  64                   0.00    428.95     97.95
  65                   0.00    428.93     88.93
  66                   0.00    428.93     89.93
  67                   0.00    428.91     96.91
  68                   0.00    428.89     89.89
  69                   0.00    428.89     77.89
  7                    0.00    428.93     75.93
  70                 109.00    428.43     88.43
  71                   0.00    428.79     91.79
  72                   0.00    428.94     72.94
  73                   0.00    428.94     73.94
  77                   0.00    428.94     72.94
  78                   0.00    428.94     88.80
  79                   0.00    428.93     75.93
  8                    0.00    428.94     78.94
  80                   0.00    428.91     79.91
  81                   0.00    428.91     69.91
  82                   0.00    428.91     70.91
  85                   0.00    428.43     89.43
  86                   0.00    428.43     91.43
  87                   0.00    428.94     68.94
  88                   0.00    428.94     75.94
  89                   0.00    428.94     61.94
  90                   0.00    428.94     72.94
  91                   0.00    428.94     56.94
  92                   0.00    428.94     68.94
  91B                  0.00    428.94     68.94
  94                   0.00    428.89     89.89
  95                   0.00    428.89     85.89
  97                   0.00    428.89     97.89
  99                   0.00    428.94     78.94
  74                   0.00    428.94     70.23
  1074                 0.00    428.94     70.94
  11A                  0.00    428.89     85.89
  1011                 0.00    428.89     85.89
  4                    0.00    426.81    114.81
  9                    0.00    426.80    116.80
  0                 -438.00    429.00      0.00  Reservoir
  balsa             -374.00    427.04      0.00  Reservoir
   
   
  Link Results:
  ----------------------------------------------
                       Flow  Velocity  Headloss
  Link                 m3/h       m/s    /1000m
  ----------------------------------------------
  TU1                 -0.00      0.00      0.00
  TU10                 0.00      0.00      0.00
  TU100              109.00      0.24      0.13
  TU101              109.00      0.15      0.05
  TU102                0.00      0.00      0.00
  TU103              109.00      0.15      0.05
  TU104              109.00      0.15      0.05
  TU105              329.00      0.14      0.02
  TU106              329.00      0.14      0.02
  TU107                0.00      0.00      0.00
  TU108              329.00      0.14      0.02
  TU109              438.00      0.19      0.03
  TU11                -0.00      0.00      0.00
  TU110              438.00      0.19      0.03
  TU111                0.00      0.00      0.00
  TU112               -0.00      0.00      0.00
  TU113                0.00      0.00      0.00
  TU114                0.00      0.00      0.00
  TU115              438.00      0.15      0.02
  TU116              438.00      0.15      0.02
  TU117               -0.00      0.00      0.00
  TU118                0.00      0.00      0.00
  TU119              438.00      0.15      0.02
  TU12                -0.00      0.00      0.00
  TU120              438.00      0.15      0.02
  TU121                0.00      0.00      0.00
  TU122                0.00      0.00      0.00
  TU123               -0.00      0.00      0.00
  TU124                0.00      0.00      0.00
  TU125               -0.00      0.00      0.00
  TU126               -0.00      0.00      0.00
  TU127               -0.00      0.00      0.00
  TU128                0.00      0.00      0.00
  TU129                0.00      0.00      0.00
  TU13                 0.00      0.00      0.00
  TU130               -0.00      0.00      0.00
  TU131               -0.00      0.00      0.00
  TU132                0.00      0.00      0.00
  TU133               -0.00      0.00      0.00
  TU134               -0.00      0.00      0.00
  TU135               -0.00      0.00      0.00
  TU136                0.00      0.00      0.00
  TU137                0.00      0.00      0.00
  TU138                0.00      0.00      0.00
  TU139                0.00      0.00      0.00
  TU14                -0.00      0.00      0.00
  TU140                0.00      0.00      0.00
  TU141                0.00      0.00      0.00
  TU142                0.00      0.00      0.00
  TU143               -0.00      0.00      0.00
  TU144               -0.00      0.00      0.00
  TU145               -0.00      0.00      0.00
  TU146               -0.00      0.00      0.00
  TU147               -0.00      0.00      0.00
  TU148               -0.00      0.00      0.00
  TU149               -0.00      0.00      0.00
  TU15                -0.00      0.00      0.00
  TU150               -0.00      0.00      0.00
  TU151               -0.00      0.00      0.00
  TU152               -0.00      0.00      0.00
  TU15301              0.00      0.00      0.00
  TU15302              0.00      0.00      0.00
  TU1074               0.00      0.00      0.00
  TU154               -0.00      0.00      0.00
  TU155               64.00      1.08      6.88
  TU156               64.00      0.06      0.01
  TU157               64.00      0.06      0.01
  TU158                0.00      0.00      0.00
  TU159               64.00      0.06      0.01
  TU16               438.00      0.08      0.00
  TU160                0.00      0.00      0.00
  TU161               64.00      0.06      0.01
  TU162              265.00      0.19      0.05
  TU163              265.00      0.19      0.05
  TU164              265.00      0.19      0.04
  TU166               -0.00      0.00      0.00
  TU167               -0.00      0.00      0.00
  TU168                0.00      0.00      0.00
  TU169                0.00      0.00      0.00
  TU17                 0.00      0.00      0.00
  TU170                0.00      0.00      0.00
  TU171              265.00      0.19      0.05
  TU17201             -0.00      0.00      0.00
  TU17202              0.00      0.00      0.00
  TU1011A             -0.00      0.00      0.00
  TU173               -0.00      0.00      0.00
  TU174               -0.00      0.00      0.00
  TU175               -0.00      0.00      0.00
  TU176              265.00      0.26      0.10
  TU177              265.00      0.26      0.09
  TU178              147.00      0.14      0.03
  TU179              147.00      0.42      0.42
  TU18                 0.00      0.00      0.00
  TU180              147.00      0.42      0.42
  TU181                0.00      0.00      0.00
  TU182                0.00      0.00      0.00
  TU183                0.00      0.00      0.00
  TU184                0.00      0.00      0.00
  TU185               -0.00      0.00      0.00
  TU186               -0.00      0.00      0.00
  TU187               -0.00      0.00      0.00
  TU188              374.00      0.27      0.08
  TU189              374.00      0.27      0.08
  TU19                 0.00      0.00      0.00
  TU190               -0.00      0.00      0.00
  TU191                0.00      0.00      0.00
  TU192                0.00      0.00      0.00
  TU193                0.00      0.00      0.00
  TU194               -0.00      0.00      0.00
  TU195                0.00      0.00      0.00
  TU196                0.00      0.00      0.00
  TU197               -0.00      0.00      0.00
  TU198                0.00      0.00      0.00
  TU199                0.00      0.00      0.00
  TU2                  0.00      0.00      0.00
  TU20                -0.00      0.00      0.00
  TU200               -0.00      0.00      0.00
  TU201                0.00      0.00      0.00
  TU203                0.00      0.00      0.00
  TU204                0.00      0.00      0.00
  TU205                0.00      0.00      0.00
  TU21                -0.00      0.00      0.00
  TU22               374.00      0.21      0.04
  TU23               374.00      0.21      0.04
  TU24               374.00      0.21      0.04
  TU25               374.00      0.21      0.12
  TU26               374.00      0.37      0.18
  TU27               374.00      0.37      0.18
  TU28               374.00      0.37      0.18
  TU29               374.00      0.37      0.18
  TU3                  0.00      0.00      0.00
  TU30                 0.00      0.00      0.00
  TU31                -0.00      0.00      0.00
  TU32                 0.00      0.00      0.00
  TU33                 0.00      0.00      0.00
  TU34                 0.00      0.00      0.00
  TU35                -0.00      0.00      0.00
  TU36                 0.00      0.00      0.00
  TU37                 0.00      0.00      0.00
  TU38                 0.00      0.00      0.00
  TU39                -0.00      0.00      0.00
  TU4                 -0.00      0.00      0.00
  TU40                -0.00      0.00      0.00
  TU41                -0.00      0.00      0.00
  TU42                 0.00      0.00      0.00
  TU43                -0.00      0.00      0.00
  TU44                -0.00      0.00      0.00
  TU45                -0.00      0.00      0.00
  TU46                -0.00      0.00      0.00
  TU47                -0.00      0.00      0.00
  TU48                 0.00      0.00      0.00
  TU49                 0.00      0.00      0.00
  TU5                  0.00      0.00      0.00
  TU50                 0.00      0.00      0.00
  TU52                 0.00      0.00      0.00
  TU53                 0.00      0.00      0.00
  TU54                 0.00      0.00      0.00
  TU55                 0.00      0.00      0.00
  TU56                 0.00      0.00      0.00
  TU57                 0.00      0.00      0.00
  TU58                62.00      1.10      7.44
  TU59                62.00      0.18      0.09
  TU6                 -0.00      0.00      0.00
  TU61                 0.00      0.00      0.00
  TU62                -0.00      0.00      0.00
  TU63                 0.00      0.00      0.00
  TU65                 0.00      0.00      0.00
  TU66                 0.00      0.00      0.00
  TU67                 0.00      0.00      0.00
  TU68                 0.00      0.00      0.00
  TU69                62.00      0.09      0.02
  TU7                  0.00      0.00      0.00
  TU70                62.00      0.09      0.02
  TU71                62.00      0.09      0.02
  TU72                 0.00      0.00      0.00
  TU73               162.00      0.36      0.28
  TU74               227.00      0.50      0.51
  TU75               227.00      0.50      0.51
  TU76               312.00      0.69      0.90
  TU77               312.00      0.69      0.90
  TU78                 0.00      0.00      0.00
  TU79                 0.00      0.00      0.00
  TU8                  0.00      0.00      0.00
  TU80                 0.00      0.00      0.00
  TU81                 0.00      0.00      0.00
  TU82                 0.00      0.00      0.00
  TU83                 0.00      0.00      0.00
  TU84                 0.00      0.00      0.00
  TU85                 0.00      0.00      0.00
  TU86                 0.00      0.00      0.00
  TU87                 0.00      0.00      0.00
  TU88                 0.00      0.00      0.00
  TU89                 0.00      0.00      0.00
  TU9                  0.00      0.00      0.00
  TU90                 0.00      0.00      0.00
  TU91                -0.00      0.00      0.00
  TU92               109.00      0.50      0.78
  TU93               109.00      0.31      0.25
  TU94                 0.00      0.00      0.00
  TU95               109.00      0.31      0.25
  TU96                 0.00      0.00      0.00
  TU97                 0.00      0.00      0.00
  TU98                 0.00      0.00      0.00
  TU99               109.00      0.24      0.13
  TU4000               0.00      0.00      0.00
  TU60                -0.00      0.00      0.00
  TU64                 0.00      0.00      0.00
  TU51                 0.00      0.00      0.00
  2                    0.00      0.00     36.00
  3                    0.00      0.00      0.00
   
  Analysis ended Fri Sep  8 13:06:14 2023
