  Page 1                                    Fri Sep  8 13:27:24 2023

  ******************************************************************
  *                           E P A N E T                          *
  *                   Hydraulic and Water Quality                  *
  *                   Analysis for Pipe Networks                   *
  *                         Version 2.2                            *
  ******************************************************************
  
  Analysis begun Fri Sep  8 13:27:24 2023

   
  Node Results:
  ----------------------------------------------
                     Demand      Head  Pressure
  Node                 m3/h         m         m
  ----------------------------------------------
  3661                 0.00    428.98     50.84
  482                  0.00    427.91     81.91
  661                  0.00    425.48     95.48
  6610                 0.00    426.61     66.61
  6611                 0.00    428.33     93.33
  6612                 0.00    428.44     66.07
  6613                 0.00    428.14     73.14
  6615                 0.00    425.61     86.61
  6616                 0.00    425.48     64.48
  6617                 0.00    425.49     82.49
  6618                 0.00    425.58     77.58
  662                  0.00    428.87    100.87
  6620                 0.00    423.88    115.88
  6621                 0.00    424.82     96.82
  6622                 0.00    425.04     88.04
  6623                 0.00    425.26     74.26
  6624                 0.00    425.30     73.30
  6625                 0.00    388.70     76.70
  6626                 0.00    425.04    104.04
  6627                 0.00    425.48    104.48
  6628                 0.00    428.87     89.87
  6629                 0.00    428.87     88.87
  663                  0.00    428.76     87.76
  6630                 0.00    428.87     89.07
  6632                 0.00    428.87     88.87
  6633                 0.00    428.95     66.31
  6634                 0.00    428.96     57.96
  6635                 0.00    428.88     76.88
  6636                 0.00    428.88     72.88
  6637                 0.00    428.82     61.82
  6639                 0.00    427.91     67.91
  664                  0.00    428.67     80.67
  6640                 0.00    427.44     67.44
  6641                 0.00    428.26     69.58
  6642                 0.00    428.26     72.26
  6643                 0.00    428.59     76.59
  6644                 0.00    428.65     76.65
  6645                 0.00    428.66     78.66
  6646                 0.00    426.69     79.67
  6648                 0.00    426.97     80.96
  6649                 0.00    428.64     89.64
  665                  0.00    428.64     83.64
  666                  0.00    428.87     88.87
  6665                 0.00    428.56     63.42
  6666                 0.00    428.78     61.12
  667                  0.00    428.64     76.64
  668                  0.00    425.48     95.48
  669                  0.00    428.87     83.87
  1                    0.00    428.91     98.91
  10                  67.00    428.20     76.20
  100                  0.00    428.26     73.26
  100B               109.00    426.64     68.64
  101                  0.00    428.14     75.14
  103                  0.00    425.91     86.91
  104                164.00    425.73     86.73
  105                  0.00    428.14     73.14
  106                 53.00    428.06     73.06
  107                  0.00    425.61     86.61
  108                  0.00    425.61     87.05
  109                  0.00    425.61     88.61
  11B                  0.00    428.61     85.61
  110                  0.00    425.58     79.58
  111                  0.00    425.57     86.79
  112                  0.00    425.57     83.57
  113                  0.00    425.56    102.56
  114                  0.00    425.53     77.53
  115                 50.00    425.49     79.49
  116                  0.00    425.52     80.52
  117                  0.00    425.49     82.49
  118                  0.00    425.49     86.49
  119                  0.00    425.49    102.68
  12                   0.00    428.49     98.15
  121                  0.00    425.55     76.75
  122                  0.00    425.52     77.62
  123                  0.00    425.52     79.52
  125                  0.00    425.55     74.55
  126                  0.00    425.55     77.55
  127                  0.00    425.55     82.22
  128                  0.00    425.48     63.48
  129                  0.00    425.48     69.48
  130                  0.00    425.48     84.40
  130B                 0.00    425.48     72.48
  132                  0.00    425.48     92.48
  134                  0.00    425.48    104.48
  135                  0.00    425.48    109.48
  137                  0.00    425.48    116.48
  139                  0.00    425.48     65.48
  14                   0.00    428.29     90.29
  140                  0.00    425.48     74.48
  141                  0.00    425.48     73.48
  142                  0.00    425.48     64.48
  143                  0.00    425.48     84.51
  144                  0.00    425.48     66.48
  146                  0.00    425.17     79.17
  147                  0.00    425.04    104.04
  148                  0.00    425.15     92.15
  149                 68.00    388.40     75.19
  15                   0.00    428.33     93.33
  150                  0.00    388.59     80.52
  151                  0.00    388.36     83.12
  152                 65.00    386.62     76.60
  153                  0.00    387.21     77.21
  154                  0.00    424.72     99.72
  157                  0.00    423.88    120.88
  158A                80.00    410.42     89.42
  158B                80.00    410.39     89.39
  16B                130.00    428.33     94.33
  160                  0.00    428.81     61.81
  162                  0.00    428.80     60.80
  163                  0.00    428.78     54.78
  164                  0.00    428.73     69.07
  165                  0.00    428.56     67.26
  166                 93.00    428.56     67.55
  167                  0.00    428.56     57.92
  169                  0.00    428.71     62.21
  17A                  0.00    428.33     93.33
  170                  0.00    428.85     69.85
  17B                  0.00    428.33     93.33
  171                  0.00    428.88     76.88
  172                  0.00    428.88     88.88
  18B                  0.00    428.33    103.33
  19                   0.00    428.95     70.95
  2                    0.00    428.88    102.88
  20                   0.00    428.98     64.98
  2002                 0.00    428.87     78.87
  2003                 0.00    428.87     78.87
  21                   0.00    425.63     64.03
  22                   0.00    425.63     64.03
  222                  0.00    425.62     75.62
  24                   0.00    425.61     81.61
  25                   0.00    425.59     80.59
  26                   0.00    425.58     77.58
  27                   0.00    425.58     75.58
  28                   0.00    425.56     75.56
  29                   0.00    425.49     69.49
  3                    0.00    428.82     88.47
  30                   0.00    425.48     64.48
  3002                 0.00    428.98     42.98
  3004                 0.00    428.98     42.98
  3005                 0.00    428.98     42.98
  3008                 0.00    428.98     43.98
  3012                 0.00    428.98     58.25
  3013                 0.00    428.98     64.05
  3016                 0.00    428.98     63.98
  3017                 0.00    428.98     46.98
  3018                 0.00    428.92     51.92
  3019                 0.00    428.98     59.59
  3020                 0.00    428.98     60.87
  3024                 0.00    428.98     64.04
  31                   0.00    425.36     67.57
  3152                 0.00    428.98     62.78
  32                   0.00    425.41     67.41
  34                   0.00    425.26     74.24
  35                   0.00    425.04     88.04
  36                   0.00    424.82     96.82
  39                   0.00    424.41    111.41
  41                   0.00    423.57    116.57
  46                   0.00    428.92     52.92
  47                   0.00    428.71     70.53
  48                   0.00    427.53     83.53
  49                  80.00    424.63     72.63
  5                    0.00    428.79     81.79
  52                  81.00    424.60     73.60
  53                   0.00    428.96     72.96
  54                   0.00    428.94     83.94
  55                   0.00    428.91     98.91
  56                   0.00    428.91     94.91
  58                   0.00    428.91     95.91
  59                   0.00    428.91     99.91
  6                    0.00    428.65     76.65
  60                   0.00    428.82     83.82
  61                   0.00    428.82     89.82
  62                   0.00    428.64     74.64
  64                   0.00    428.87     97.87
  65                   0.00    428.87     88.87
  66                   0.00    428.87     89.87
  67                   0.00    428.87     96.87
  68                   0.00    428.87     89.87
  69                   0.00    428.87     77.87
  7                    0.00    428.71     75.71
  70                   0.00    428.87     88.87
  71                   0.00    428.87     91.87
  72                   0.00    428.64     72.64
  73                   0.00    428.58     73.58
  77                   0.00    428.64     72.64
  78                   0.00    428.64     88.50
  79                   0.00    428.71     75.71
  8                    0.00    428.66     78.66
  80                   0.00    428.62     79.62
  81                   0.00    426.97     67.97
  82                 131.00    425.91     67.91
  85                   0.00    428.87     89.87
  86                   0.00    428.87     91.87
  87                   0.00    428.48     68.48
  88                   0.00    428.44     75.44
  89                   0.00    428.34     61.34
  90                   0.00    428.26     72.26
  91                   0.00    427.91     55.91
  92                   0.00    426.61     66.61
  91B                195.00    426.21     66.21
  94                   0.00    428.64     89.64
  95                   0.00    428.64     85.64
  97                   0.00    428.64     97.64
  99                   0.00    428.34     78.34
  74                   0.00    428.58     69.87
  1074                 0.00    428.58     70.58
  11A                  0.00    428.64     85.64
  1011                 0.00    428.64     85.64
  4                    0.00    424.70    112.70
  9                    0.00    423.88    113.88
  0                -1103.00    429.00      0.00  Reservoir
  balsa             -343.00    425.63      0.00  Reservoir
   
   
  Link Results:
  ----------------------------------------------
                       Flow  Velocity  Headloss
  Link                 m3/h       m/s    /1000m
  ----------------------------------------------
  TU1                 -0.00      0.00      0.00
  TU10                 0.00      0.00      0.00
  TU100                0.00      0.00      0.00
  TU101                0.00      0.00      0.00
  TU102                0.00      0.00      0.00
  TU103                0.00      0.00      0.00
  TU104                0.00      0.00      0.00
  TU105              849.00      0.37      0.11
  TU106              849.00      0.37      0.11
  TU107                0.00      0.00      0.00
  TU108              849.00      0.37      0.11
  TU109              849.00      0.37      0.11
  TU11                53.00      0.24      0.21
  TU110              849.00      0.37      0.11
  TU111                0.00      0.00      0.00
  TU112               -0.00      0.00      0.00
  TU113                0.00      0.00      0.00
  TU114                0.00      0.00      0.00
  TU115              849.00      0.30      0.07
  TU116              849.00      0.30      0.07
  TU117               -0.00      0.00      0.00
  TU118                0.00      0.00      0.00
  TU119              849.00      0.30      0.07
  TU12               164.00      1.87     15.06
  TU120              849.00      0.30      0.07
  TU121               -0.00      0.00      0.00
  TU122                0.00      0.00      0.00
  TU123               -0.00      0.00      0.00
  TU124               81.00      0.92      4.13
  TU125              161.00      1.18      4.91
  TU126              161.00      0.74      1.58
  TU127              161.00      0.74      1.58
  TU128                0.00      0.00      0.00
  TU129                0.00      0.00      0.00
  TU13               164.00      1.20      5.08
  TU130                0.00      0.00      0.00
  TU131               93.00      0.40      0.52
  TU132                0.00      0.00      0.00
  TU133               93.00      0.40      0.52
  TU134              195.00      2.11     18.09
  TU135               93.00      0.21      0.10
  TU136               93.00      0.21      0.10
  TU137              254.00      0.36      0.21
  TU138              254.00      0.36      0.21
  TU139              254.00      0.25      0.09
  TU14               217.00      0.48      0.47
  TU140              254.00      0.25      0.09
  TU141                0.00      0.00      0.00
  TU142                0.00      0.00      0.00
  TU143               -0.00      0.00      0.00
  TU144              109.00      1.18      6.20
  TU145              195.00      1.35      6.12
  TU146              304.00      1.32      4.47
  TU147              304.00      0.82      1.40
  TU148                0.00      0.00      0.00
  TU149               -0.00      0.00      0.00
  TU15                -0.00      0.00      0.00
  TU150               -0.00      0.00      0.00
  TU151              304.00      0.43      0.29
  TU152               -0.00      0.00      0.00
  TU15301            304.00      0.43      0.29
  TU15302            304.00      0.43      0.29
  TU1074               0.00      0.00      0.00
  TU154              304.00      0.30      0.12
  TU155               67.00      1.13      7.48
  TU156              371.00      0.36      0.17
  TU157              371.00      0.36      0.18
  TU158                0.00      0.00      0.00
  TU159              371.00      0.36      0.17
  TU16              1103.00      0.20      0.02
  TU160                0.00      0.00      0.00
  TU161              371.00      0.36      0.17
  TU162              478.00      0.35      0.13
  TU163              478.00      0.35      0.13
  TU164              478.00      0.35      0.14
  TU166               -0.00      0.00      0.00
  TU167              131.00      1.72     14.05
  TU168              131.00      1.72     14.05
  TU169              131.00      1.10      4.74
  TU17                -0.00      0.00      0.00
  TU170              131.00      0.60      1.08
  TU171              347.00      0.25      0.07
  TU17201             -0.00      0.00      0.00
  TU17202              0.00      0.00      0.00
  TU1011A             -0.00      0.00      0.00
  TU173               -0.00      0.00      0.00
  TU174               -0.00      0.00      0.00
  TU175               -0.00      0.00      0.00
  TU176              347.00      0.34      0.15
  TU177              347.00      0.34      0.15
  TU178              347.00      0.34      0.15
  TU179                0.00      0.00      0.00
  TU18                 0.00      0.00      0.00
  TU180                0.00      0.00      0.00
  TU181                0.00      0.00      0.00
  TU182                0.00      0.00      0.00
  TU183                0.00      0.00      0.00
  TU184                0.00      0.00      0.00
  TU185               50.00      0.11      0.03
  TU186               93.00      0.25      0.16
  TU187               93.00      0.21      0.10
  TU188              343.00      0.25      0.07
  TU189              343.00      0.25      0.07
  TU19                -0.00      0.00      0.00
  TU190               65.00      0.85      3.90
  TU191               -0.00      0.00      0.00
  TU192                0.00      0.00      0.00
  TU193                0.00      0.00      0.00
  TU194               -0.00      0.00      0.00
  TU195                0.00      0.00      0.00
  TU196                0.00      0.00      0.00
  TU197               -0.00      0.00      0.00
  TU198                0.00      0.00      0.00
  TU199                0.00      0.00      0.00
  TU2                  0.00      0.00      0.00
  TU20                -0.00      0.00      0.00
  TU200               -0.00      0.00      0.00
  TU201                0.00      0.00      0.00
  TU203                0.00      0.00      0.00
  TU204                0.00      0.00      0.00
  TU205                0.00      0.00      0.00
  TU21                65.00      0.55      1.33
  TU22               343.00      0.19      0.04
  TU23               343.00      0.19      0.04
  TU24               343.00      0.19      0.04
  TU25               343.00      0.19      0.00
  TU26               293.00      0.29      0.11
  TU27               293.00      0.29      0.11
  TU28               293.00      0.29      0.11
  TU29               293.00      0.29      0.11
  TU3                  0.00      0.00      0.00
  TU30                 0.00      0.00      0.00
  TU31                -0.00      0.00      0.00
  TU32                 0.00      0.00      0.00
  TU33                 0.00      0.00      0.00
  TU34                50.00      0.23      0.19
  TU35                 0.00      0.00      0.00
  TU36                 0.00      0.00      0.00
  TU37                50.00      0.14      0.06
  TU38                50.00      0.14      0.06
  TU39                -0.00      0.00      0.00
  TU4                304.00      0.43      0.29
  TU40                 0.00      0.00      0.00
  TU41                50.00      0.11      0.03
  TU42                 0.00      0.00      0.00
  TU43                50.00      0.07      0.01
  TU44                50.00      0.07      0.01
  TU45                50.00      0.07      0.01
  TU46                50.00      0.07      0.01
  TU47                -0.00      0.00      0.00
  TU48               160.00      2.10     20.33
  TU49               160.00      1.35      6.84
  TU5                304.00      0.43      0.29
  TU50                 0.00      0.00      0.00
  TU52               160.00      0.53      0.71
  TU53               160.00      0.53      0.71
  TU54                 0.00      0.00      0.00
  TU55               160.00      0.53      0.71
  TU56                 0.00      0.00      0.00
  TU57               160.00      0.45      0.49
  TU58                 0.00      0.00      0.00
  TU59               160.00      0.45      0.49
  TU6                 50.00      0.07      0.01
  TU61                 0.00      0.00      0.00
  TU62                65.00      0.35      0.44
  TU63                68.00      1.40     12.60
  TU65                 0.00      0.00      0.00
  TU66               133.00      0.44      0.51
  TU67               133.00      0.38      0.35
  TU68               133.00      0.38      0.35
  TU69               293.00      0.41      0.27
  TU7                  0.00      0.00      0.00
  TU70               293.00      0.41      0.27
  TU71               293.00      0.41      0.27
  TU72                 0.00      0.00      0.00
  TU73                 0.00      0.00      0.00
  TU74                 0.00      0.00      0.00
  TU75                 0.00      0.00      0.00
  TU76                 0.00      0.00      0.00
  TU77                 0.00      0.00      0.00
  TU78                 0.00      0.00      0.00
  TU79                 0.00      0.00      0.00
  TU8                  0.00      0.00      0.00
  TU80                 0.00      0.00      0.00
  TU81                 0.00      0.00      0.00
  TU82                 0.00      0.00      0.00
  TU83                 0.00      0.00      0.00
  TU84                 0.00      0.00      0.00
  TU85                 0.00      0.00      0.00
  TU86                 0.00      0.00      0.00
  TU87                 0.00      0.00      0.00
  TU88                 0.00      0.00      0.00
  TU89                 0.00      0.00      0.00
  TU9                 53.00      0.89      4.88
  TU90                 0.00      0.00      0.00
  TU91                -0.00      0.00      0.00
  TU92                -0.00      0.00      0.00
  TU93                 0.00      0.00      0.00
  TU94                 0.00      0.00      0.00
  TU95                 0.00      0.00      0.00
  TU96                 0.00      0.00      0.00
  TU97                 0.00      0.00      0.00
  TU98                 0.00      0.00      0.00
  TU99                 0.00      0.00      0.00
  TU4000              80.00      1.05      5.69
  TU60                65.00      1.34     11.60
  TU64               133.00      0.71      1.60
  TU51               160.00      0.85      2.24
  2                  133.00      2.74     36.00  PBV
  3                  160.00      3.30      0.00  PBV
   
  Analysis ended Fri Sep  8 13:27:24 2023
