  Page 1                                    Fri Sep  8 13:15:12 2023

  ******************************************************************
  *                           E P A N E T                          *
  *                   Hydraulic and Water Quality                  *
  *                   Analysis for Pipe Networks                   *
  *                         Version 2.2                            *
  ******************************************************************
  
  Analysis begun Fri Sep  8 13:15:12 2023

   
  Node Results:
  ----------------------------------------------
                     Demand      Head  Pressure
  Node                 m3/h         m         m
  ----------------------------------------------
  3661                 0.00    428.61     50.47
  482                  0.00    427.75     81.75
  661                  0.00    419.57     89.57
  6610                 0.00    421.63     61.63
  6611                 0.00    421.40     86.41
  6612                 0.00    423.71     61.34
  6613                 0.00    421.42     66.42
  6615                 0.00    421.42     82.42
  6616                 0.00    420.80     59.80
  6617                 0.00    421.09     78.09
  6618                 0.00    421.46     73.46
  662                  0.00    426.95     98.95
  6620                 0.00    419.78    111.78
  6621                 0.00    420.36     92.36
  6622                 0.00    420.49     83.49
  6623                 0.00    420.62     69.62
  6624                 0.00    420.67     68.67
  6625                 0.00    384.64     72.64
  6626                 0.00    420.64     99.64
  6627                 0.00    418.45     97.45
  6628                 0.00    422.76     83.76
  6629                 0.00    425.18     85.18
  663                  0.00    426.02     85.02
  6630                 0.00    425.83     86.03
  6632                 0.00    426.27     86.27
  6633                 0.00    428.20     65.56
  6634                 0.00    428.34     57.34
  6635                 0.00    428.13     76.13
  6636                 0.00    428.13     72.13
  6637                 0.00    427.96     60.96
  6639                 0.00    422.56     62.56
  664                  0.00    425.48     77.48
  6640                 0.00    422.26     62.26
  6641                 0.00    423.14     64.46
  6642                 0.00    423.07     67.07
  6643                 0.00    424.56     72.56
  6644                 0.00    424.92     72.92
  6645                 0.00    425.08     75.08
  6646                 0.00    424.79     77.77
  6648                 0.00    424.79     78.78
  6649                 0.00    424.93     85.93
  665                  0.00    425.19     80.19
  666                  0.00    425.83     85.83
  6665                 0.00    427.35     62.21
  6666                 0.00    427.64     59.98
  667                  0.00    424.88     72.88
  668                  0.00    419.57     89.57
  669                  0.00    424.91     79.91
  1                   73.00    427.55     97.55
  10                   0.00    424.56     72.56
  100                123.00    423.04     68.04
  100B                72.00    421.88     63.88
  101                141.00    420.85     67.85
  103                 54.00    422.73     83.73
  104                  0.00    422.73     83.73
  105                  0.00    421.42     66.42
  106                 54.00    421.34     66.34
  107                 82.00    421.08     82.08
  108                  0.00    421.42     82.86
  109                  0.00    421.42     84.42
  11B                  0.00    425.02     82.02
  110                 65.00    421.44     75.44
  111                 53.00    421.38     82.60
  112                  0.00    421.41     79.41
  113                  0.00    421.35     98.35
  114                  0.00    421.25     73.25
  115                  0.00    421.18     75.18
  116                  0.00    421.23     76.23
  117                 64.00    421.02     78.02
  118                  0.00    421.09     82.09
  119                  0.00    421.09     98.28
  12                   0.00    424.21     93.87
  121                  0.00    421.29     72.49
  122                  0.00    421.23     73.33
  123                  0.00    421.23     75.23
  125                  0.00    421.28     70.28
  126                 63.00    421.18     73.18
  127                  0.00    421.18     77.85
  128                 62.00    420.74     58.74
  129                  0.00    420.05     64.05
  130                129.00    419.68     78.60
  130B                67.00    419.87     66.87
  132                 57.00    417.91     84.91
  134                  0.00    418.45     97.45
  135                 50.00    416.44    100.44
  137                 63.00    411.98    102.98
  139                 67.00    419.12     59.12
  14                  82.00    423.05     85.05
  140                  0.00    419.36     68.36
  141                  0.00    419.35     67.35
  142                  0.00    419.12     58.12
  143                  0.00    417.91     76.94
  144                 87.00    420.38     61.38
  146                  0.00    420.64     74.64
  147                  0.00    420.64     99.64
  148                 60.00    420.64     87.64
  149                  0.00    384.64     71.43
  15                 204.00    420.84     85.84
  150                  0.00    384.64     76.57
  151                  0.00    384.64     79.40
  152                  0.00    384.64     74.62
  153                  0.00    384.64     74.64
  154                  0.00    420.29     95.29
  157                  0.00    419.78    116.78
  158A                61.00    411.62     90.62
  158B                61.00    411.60     90.60
  16B                 60.00    423.13     89.13
  160                  0.00    427.93     60.93
  162                  0.00    427.79     59.79
  163                 96.00    427.30     53.30
  164                 64.00    427.47     67.81
  165                 60.00    427.35     66.05
  166                  0.00    427.35     66.34
  167                  0.00    427.35     56.71
  169                 76.00    427.27     60.77
  17A                  0.00    420.85     85.85
  170                104.00    428.03     69.03
  17B                180.00    420.28     85.28
  171                  0.00    428.13     76.13
  172                  0.00    428.13     88.13
  18B                217.00    414.65     89.65
  19                   0.00    428.20     70.20
  2                    0.00    427.08    101.08
  20                  90.00    428.61     64.61
  2002                 0.00    424.91     74.91
  2003                 0.00    424.91     74.91
  21                  54.00    421.98     60.38
  22                  71.00    421.97     60.37
  222                 71.00    421.82     71.82
  24                   0.00    421.73     77.73
  25                   0.00    421.61     76.61
  26                   0.00    421.46     73.46
  27                   0.00    421.48     71.48
  28                   0.00    421.32     71.32
  29                  47.00    420.87     64.87
  3                   60.00    426.54     86.19
  30                   0.00    420.81     59.81
  3002                 0.00    428.61     42.61
  3004                 0.00    428.61     42.61
  3005                 0.00    428.61     42.61
  3008                 0.00    428.61     43.61
  3012                 0.00    428.61     57.88
  3013                 0.00    428.61     63.68
  3016                90.00    428.61     63.61
  3017               139.00    428.61     46.61
  3018                68.00    427.99     50.99
  3019                 0.00    428.61     59.22
  3020                 0.00    428.61     60.50
  3024                 0.00    428.61     63.67
  31                   0.00    420.72     62.93
  3152                 0.00    428.61     62.41
  32                   0.00    420.75     62.75
  34                  53.00    420.52     69.50
  35                   0.00    420.49     83.49
  36                   0.00    420.36     92.36
  39                   0.00    420.10    107.10
  41                   0.00    419.59    112.59
  46                 171.00    428.23     52.23
  47                   0.00    427.42     69.24
  48                   0.00    427.66     83.66
  49                   0.00    426.99     74.99
  5                    0.00    426.27     79.27
  52                  72.00    426.96     75.96
  53                 123.00    425.97     69.97
  54                   0.00    427.97     82.97
  55                   0.00    426.07     96.07
  56                  57.00    425.35     91.35
  58                 125.00    420.82     87.82
  59                 166.00    416.99     87.99
  6                   62.00    424.70     72.70
  60                   0.00    424.24     79.24
  61                  79.00    423.14     84.14
  62                   0.00    424.63     70.63
  64                  75.00    426.63     95.63
  65                  88.00    425.89     85.89
  66                  85.00    426.26     87.26
  67                 101.00    425.96     93.96
  68                   0.00    425.83     86.83
  69                   0.00    425.83     74.83
  7                    0.00    425.72     72.72
  70                 170.00    423.85     83.85
  71                  91.00    423.20     86.20
  72                  91.00    424.63     68.63
  73                 162.00    424.47     69.47
  77                 107.00    421.72     65.72
  78                   0.00    424.63     84.49
  79                  48.00    425.71     72.71
  8                    0.00    425.08     75.08
  80                  95.00    425.40     76.40
  81                  76.00    422.75     63.75
  82                   0.00    424.79     66.79
  85                  54.00    422.53     83.53
  86                   0.00    422.76     85.76
  87                 121.00    423.89     63.89
  88                  67.00    417.85     64.85
  89                  74.00    423.37     56.37
  90                   0.00    423.07     67.07
  91                 162.00    422.20     50.20
  92                  59.00    421.59     61.59
  91B                108.00    421.50     61.50
  94                   0.00    424.93     85.93
  95                   0.00    424.35     81.35
  97                   0.00    423.96     92.96
  99                   0.00    423.37     73.37
  74                 103.00    420.66     61.95
  1074                 0.00    424.41     66.41
  11A                125.00    423.78     80.78
  1011                 0.00    423.96     80.96
  4                    0.00    420.64    108.64
  9                    0.00    419.78    109.78
  0                -5024.00    429.00      0.00  Reservoir
  balsa            -1387.00    421.98     -0.00  Reservoir
   
   
  Link Results:
  ----------------------------------------------
                       Flow  Velocity  Headloss
  Link                 m3/h       m/s    /1000m
  ----------------------------------------------
  TU1                 59.00      0.64      2.08
  TU10                 0.00      0.00      0.00
  TU100              416.00      0.92      1.53
  TU101              501.00      0.71      0.73
  TU102               88.00      1.57     14.12
  TU103              589.00      0.83      0.98
  TU104              664.00      0.94      1.22
  TU105             2647.00      1.16      0.90
  TU106             2647.00      1.16      0.90
  TU107                0.00      0.00      0.00
  TU108             2786.00      1.22      0.98
  TU109             3450.00      1.51      1.46
  TU11               195.00      0.89      2.24
  TU110             3450.00      1.51      1.46
  TU111              166.00      2.18     21.76
  TU112              291.00      2.13     14.61
  TU113              348.00      1.85      9.33
  TU114              348.00      1.85      9.33
  TU115             3871.00      1.37      1.08
  TU116             3871.00      1.37      1.08
  TU117              123.00      1.33      7.74
  TU118                0.00      0.00      0.00
  TU119             3871.00      1.37      1.08
  TU12                 0.00      0.00      0.00
  TU120             3994.00      1.41      1.15
  TU121                0.00      0.00      0.00
  TU122                0.00      0.00      0.00
  TU123               -0.00      0.00      0.00
  TU124               72.00      0.82      3.33
  TU125               72.00      0.53      1.13
  TU126               72.00      0.33      0.37
  TU127               72.00      0.33      0.37
  TU128                0.00      0.00      0.00
  TU129                0.00      0.00      0.00
  TU13                54.00      0.39      0.68
  TU130               60.00      0.26      0.23
  TU131               60.00      0.26      0.24
  TU132               76.00      0.33      0.36
  TU133              136.00      0.59      1.03
  TU134              108.00      1.17      6.10
  TU135              296.00      0.65      0.82
  TU136              296.00      0.65      0.82
  TU137              368.00      0.52      0.42
  TU138              472.00      0.67      0.65
  TU139              472.00      0.46      0.27
  TU14               331.00      0.73      1.01
  TU140              711.00      0.70      0.57
  TU141                0.00      0.00      0.00
  TU142              198.00      0.53      0.64
  TU143              162.00      0.71      1.41
  TU144               72.00      0.78      2.91
  TU145              167.00      1.16      4.60
  TU146              239.00      1.04      2.88
  TU147              401.00      1.08      2.32
  TU148               -0.00      0.00      0.00
  TU149              123.00      0.85      2.63
  TU15                -0.00      0.00      0.00
  TU150              123.00      0.85      2.63
  TU151              524.00      0.74      0.79
  TU152               -0.00      0.00      0.00
  TU15301            889.00      1.26      2.09
  TU15302            786.00      1.11      1.67
  TU1074             103.00      1.35      9.03
  TU154             1051.00      1.03      1.17
  TU155               -0.00      0.00      0.00
  TU156             1051.00      1.03      1.17
  TU157             1249.00      1.23      1.61
  TU158               62.00      1.10      7.44
  TU159             1311.00      1.29      1.76
  TU16              5024.00      0.91      0.34
  TU160                0.00      0.00      0.00
  TU161             1311.00      1.29      1.76
  TU162             1336.00      0.96      0.86
  TU163             1288.00      0.93      0.81
  TU164             1336.00      0.96      0.86
  TU166               76.00      1.57     15.45
  TU167               -0.00      0.00      0.00
  TU168                0.00      0.00      0.00
  TU169               76.00      0.64      1.76
  TU17                -0.00      0.00      0.00
  TU170              171.00      0.78      1.76
  TU171             1117.00      0.81      0.62
  TU17201            125.00      1.64     12.89
  TU17202              0.00      0.00      0.00
  TU1011A            125.00      1.64     12.89
  TU173              125.00      0.91      3.09
  TU174               -0.00      0.00      0.00
  TU175              125.00      0.57      1.00
  TU176              992.00      0.97      1.05
  TU177              992.00      0.97      1.05
  TU178              992.00      0.97      1.05
  TU179              601.00      1.71      5.54
  TU18                 0.00      0.00      0.00
  TU180              397.00      1.13      2.58
  TU181              217.00      1.83     11.99
  TU182              397.00      1.82      8.27
  TU183               79.00      0.90      3.95
  TU184                0.00      0.00      0.00
  TU185              127.00      0.28      0.18
  TU186              200.00      0.54      0.65
  TU187              296.00      0.65      0.82
  TU188             1109.00      0.80      0.61
  TU189             1109.00      0.80      0.61
  TU19                82.00      1.46     12.41
  TU190               -0.00      0.00      0.00
  TU191               79.00      1.41     11.59
  TU192                0.00      0.00      0.00
  TU193                0.00      0.00      0.00
  TU194               -0.00      0.00      0.00
  TU195                0.00      0.00      0.00
  TU196                0.00      0.00      0.00
  TU197               -0.00      0.00      0.00
  TU198                0.00      0.00      0.00
  TU199                0.00      0.00      0.00
  TU2                204.00      2.33     22.56
  TU20                82.00      0.60      1.44
  TU200               -0.00      0.00      0.00
  TU201                0.00      0.00      0.00
  TU203               68.00      1.14      7.69
  TU204               90.00      0.04      0.00
  TU205              180.00      0.08      0.01
  TU21                -0.00      0.00      0.00
  TU22              1191.00      0.66      0.36
  TU23              1262.00      0.70      0.41
  TU24              1333.00      0.74      0.45
  TU25              1387.00      0.77      0.50
  TU26               817.00      0.80      0.74
  TU27               817.00      0.80      0.74
  TU28               864.00      0.85      0.82
  TU29               864.00      0.85      0.82
  TU3                 67.00      1.13      7.48
  TU30                 0.00      0.00      0.00
  TU31                -0.00      0.00      0.00
  TU32                64.00      0.73      2.69
  TU33                64.00      0.29      0.30
  TU34                64.00      0.29      0.30
  TU35                 0.00      0.00      0.00
  TU36                 0.00      0.00      0.00
  TU37                64.00      0.18      0.09
  TU38                64.00      0.18      0.09
  TU39                -0.00      0.00      0.00
  TU4                598.00      0.85      1.01
  TU40                63.00      0.46      0.89
  TU41               127.00      0.28      0.18
  TU42                96.00      0.66      1.68
  TU43               180.00      0.25      0.11
  TU44               180.00      0.25      0.11
  TU45               245.00      0.35      0.20
  TU46               245.00      0.35      0.20
  TU47                -0.00      0.00      0.00
  TU48               122.00      1.60     12.33
  TU49               122.00      1.03      4.16
  TU5                665.00      0.94      1.23
  TU50                 0.00      0.00      0.00
  TU52               122.00      0.40      0.44
  TU53               122.00      0.40      0.44
  TU54                 0.00      0.00      0.00
  TU55               122.00      0.40      0.44
  TU56                 0.00      0.00      0.00
  TU57               122.00      0.35      0.30
  TU58                53.00      0.94      5.59
  TU59               175.00      0.50      0.58
  TU6                127.00      0.18      0.06
  TU61                 0.00      0.00      0.00
  TU62                -0.00      0.00      0.00
  TU63                 0.00      0.00      0.00
  TU65                 0.00      0.00      0.00
  TU66                 0.00      0.00      0.00
  TU67                60.00      0.17      0.08
  TU68                60.00      0.17      0.08
  TU69               235.00      0.33      0.18
  TU7                107.00      1.80     17.66
  TU70               235.00      0.33      0.18
  TU71               235.00      0.33      0.18
  TU72               237.00      0.52      0.55
  TU73               366.00      0.81      1.21
  TU74               433.00      0.96      1.65
  TU75               433.00      0.96      1.65
  TU76               520.00      1.15      2.31
  TU77               582.00      1.29      2.84
  TU78                63.00      1.30     10.95
  TU79               113.00      1.49     10.71
  TU8                141.00      1.52      9.94
  TU80                 0.00      0.00      0.00
  TU81               113.00      0.95      3.62
  TU82                 0.00      0.00      0.00
  TU83                57.00      0.75      3.07
  TU84                 0.00      0.00      0.00
  TU85                67.00      0.49      1.00
  TU86                67.00      0.31      0.32
  TU87                67.00      0.36      0.46
  TU88               124.00      0.27      0.17
  TU89                54.00      0.96      5.79
  TU9                 54.00      0.91      5.05
  TU90                 0.00      0.00      0.00
  TU91                54.00      0.62      1.98
  TU92               224.00      1.03      2.88
  TU93               224.00      0.64      0.91
  TU94                91.00      1.04      5.11
  TU95               315.00      0.89      1.69
  TU96                 0.00      0.00      0.00
  TU97                 0.00      0.00      0.00
  TU98                 0.00      0.00      0.00
  TU99               315.00      0.70      0.92
  TU4000              61.00      0.80      3.48
  TU60                 0.00      0.00      0.00
  TU64                 0.00      0.00      0.00
  TU51               122.00      0.65      1.37
  2                    0.00      0.00     36.00  PBV
  3                  122.00      2.51      0.00  PBV
   
  Analysis ended Fri Sep  8 13:15:12 2023
