  Page 1                                    Fri Sep  8 13:23:31 2023

  ******************************************************************
  *                           E P A N E T                          *
  *                   Hydraulic and Water Quality                  *
  *                   Analysis for Pipe Networks                   *
  *                         Version 2.2                            *
  ******************************************************************
  
  Analysis begun Fri Sep  8 13:23:31 2023

   
  Node Results:
  ----------------------------------------------
                     Demand      Head  Pressure
  Node                 m3/h         m         m
  ----------------------------------------------
  3661                 0.00    428.92     50.78
  482                  0.00    428.30     82.30
  661                  0.00    426.80     96.80
  6610                 0.00    428.31     68.31
  6611                 0.00    426.94     91.94
  6612                 0.00    428.31     65.94
  6613                 0.00    427.31     72.31
  6615                 0.00    426.95     87.95
  6616                 0.00    426.86     65.86
  6617                 0.00    426.62     83.62
  6618                 0.00    426.92     78.92
  662                  0.00    428.64    100.64
  6620                 0.00    425.27    117.27
  6621                 0.00    426.28     98.28
  6622                 0.00    426.51     89.51
  6623                 0.00    426.74     75.74
  6624                 0.00    426.79     74.79
  6625                 0.00    390.79     78.79
  6626                 0.00    426.79    105.79
  6627                 0.00    426.80    105.80
  6628                 0.00    427.78     88.78
  6629                 0.00    428.37     88.37
  663                  0.00    428.44     87.44
  6630                 0.00    428.52     88.72
  6632                 0.00    428.60     88.60
  6633                 0.00    428.85     66.21
  6634                 0.00    428.87     57.87
  6635                 0.00    428.73     76.73
  6636                 0.00    428.73     72.73
  6637                 0.00    428.62     61.62
  6639                 0.00    428.31     68.31
  664                  0.00    428.22     80.22
  6640                 0.00    428.31     68.31
  6641                 0.00    428.31     69.63
  6642                 0.00    428.31     72.31
  6643                 0.00    428.33     76.33
  6644                 0.00    428.35     76.35
  6645                 0.00    428.36     78.36
  6646                 0.00    428.22     81.20
  6648                 0.00    428.22     82.21
  6649                 0.00    427.39     88.39
  665                  0.00    428.07     83.07
  666                  0.00    428.52     88.52
  6665                 0.00    428.03     62.89
  6666                 0.00    428.41     60.75
  667                  0.00    428.35     76.35
  668                  0.00    426.80     96.80
  669                  0.00    428.25     83.25
  1                   80.00    428.75     98.75
  10                  71.00    427.89     75.89
  100                  0.00    428.31     73.31
  100B                 0.00    428.31     70.31
  101                  0.00    427.31     74.31
  103                  0.00    424.85     85.85
  104                167.00    424.66     85.66
  105                  0.00    427.31     72.31
  106                  0.00    427.31     72.31
  107                  0.00    426.95     87.95
  108                  0.00    426.95     88.39
  109                  0.00    426.95     89.95
  11B                  0.00    428.01     85.01
  110                  0.00    426.92     80.92
  111                  0.00    426.91     88.13
  112                  0.00    426.91     84.91
  113                  0.00    426.89    103.89
  114                  0.00    426.83     78.83
  115                  0.00    426.74     80.74
  116                  0.00    426.80     81.80
  117                 74.00    426.53     83.53
  118                  0.00    426.62     87.62
  119                  0.00    426.62    103.81
  12                   0.00    427.72     97.38
  121                  0.00    426.87     78.07
  122                  0.00    426.80     78.90
  123                  0.00    426.80     80.80
  125                  0.00    426.87     75.87
  126                  0.00    426.87     78.87
  127                  0.00    426.87     83.54
  128                  0.00    426.85     64.85
  129                  0.00    426.83     70.83
  130                  0.00    426.82     85.74
  130B                 0.00    426.83     73.83
  132                  0.00    426.80     93.80
  134                  0.00    426.80    105.80
  135                  0.00    426.80    110.80
  137                  0.00    426.80    117.80
  139                 70.00    426.32     66.32
  14                   0.00    427.31     89.31
  140                  0.00    426.58     75.58
  141                  0.00    426.56     74.56
  142                  0.00    426.32     65.32
  143                  0.00    426.80     85.83
  144                  0.00    426.84     67.84
  146                  0.00    426.79     80.79
  147                  0.00    426.79    105.79
  148                  0.00    426.79     93.79
  149                  0.00    390.79     77.58
  15                   0.00    426.94     91.94
  150                  0.00    390.79     82.72
  151                  0.00    390.79     85.55
  152                  0.00    390.79     80.77
  153                  0.00    390.79     80.79
  154                  0.00    426.17    101.17
  157                  0.00    425.27    122.27
  158A                83.00    410.86     89.86
  158B                83.00    410.83     89.83
  16B                127.00    427.34     93.34
  160                  0.00    428.60     61.60
  162                 42.00    428.49     60.49
  163                  0.00    428.41     54.41
  164                 65.00    428.23     68.57
  165                  0.00    428.03     66.73
  166                 91.00    428.03     67.02
  167                  0.00    428.03     57.39
  169                 53.00    428.09     61.59
  17A                272.00    426.66     91.66
  170                  0.00    428.68     69.68
  17B                  0.00    426.66     91.66
  171                  0.00    428.73     76.73
  172                  0.00    428.73     88.73
  18B                  0.00    426.66    101.66
  19                   0.00    428.85     70.85
  2                    0.00    428.67    102.67
  20                  88.00    428.92     64.92
  2002                 0.00    428.25     78.25
  2003                 0.00    428.25     78.25
  21                   0.00    426.97     65.37
  22                   0.00    426.96     65.36
  222                  0.00    426.95     76.95
  24                   0.00    426.95     82.95
  25                   0.00    426.93     81.93
  26                   0.00    426.92     78.92
  27                   0.00    426.92     76.92
  28                   0.00    426.91     76.91
  29                   0.00    426.86     70.86
  3                    0.00    428.56     88.21
  30                   0.00    426.86     65.86
  3002                 0.00    428.92     42.92
  3004                 0.00    428.92     42.92
  3005                 0.00    428.92     42.92
  3008                 0.00    428.92     43.92
  3012                 0.00    428.92     58.19
  3013                 0.00    428.92     63.99
  3016                 0.00    428.92     63.92
  3017               112.00    428.92     46.92
  3018                56.00    428.63     51.63
  3019                 0.00    428.92     59.53
  3020                 0.00    428.92     60.81
  3024                 0.00    428.92     63.98
  31                   0.00    426.81     69.02
  3152                 0.00    428.92     62.72
  32                   0.00    426.83     68.83
  34                   0.00    426.74     75.72
  35                   0.00    426.51     89.51
  36                   0.00    426.28     98.28
  39                   0.00    425.84    112.84
  41                   0.00    424.94    117.94
  46                   0.00    428.79     52.79
  47                   0.00    428.17     69.99
  48                   0.00    428.17     84.17
  49                   0.00    427.16     75.16
  5                    0.00    428.50     81.50
  52                  90.00    427.12     76.12
  53                  63.00    428.18     72.18
  54                   0.00    428.81     83.81
  55                   0.00    428.70     98.70
  56                  54.00    428.67     94.67
  58                   0.00    428.67     95.67
  59                   0.00    428.67     99.67
  6                   59.00    428.14     76.14
  60                   0.00    428.56     83.56
  61                   0.00    428.56     89.56
  62                  98.00    424.67     70.67
  64                   0.00    428.62     97.62
  65                   0.00    428.60     88.60
  66                   0.00    428.60     89.60
  67                   0.00    428.55     96.55
  68                   0.00    428.52     89.52
  69                   0.00    428.52     77.52
  7                    0.00    428.32     75.32
  70                 143.00    427.78     87.78
  71                   0.00    428.37     91.37
  72                   0.00    428.28     72.28
  73                   0.00    428.33     73.33
  77                   0.00    428.28     72.28
  78                   0.00    428.28     88.14
  79                  50.00    428.31     75.31
  8                    0.00    428.36     78.36
  80                   0.00    428.22     79.22
  81                   0.00    428.22     69.22
  82                   0.00    428.22     70.22
  85                   0.00    427.78     88.78
  86                   0.00    427.78     90.78
  87                 119.00    428.31     68.31
  88                   0.00    428.31     75.31
  89                   0.00    428.31     61.31
  90                   0.00    428.31     72.31
  91                   0.00    428.31     56.31
  92                   0.00    428.31     68.31
  91B                  0.00    428.31     68.31
  94                  72.00    426.84     87.84
  95                   0.00    426.68     83.68
  97                 140.00    419.82     88.82
  99                   0.00    428.31     78.31
  74                   0.00    428.33     69.62
  1074                 0.00    428.33     70.33
  11A                  0.00    426.20     83.20
  1011                 0.00    426.20     83.20
  4                    0.00    426.79    114.79
  9                    0.00    425.27    115.27
  0                -2112.00    429.00      0.00  Reservoir
  balsa             -310.00    426.97     -0.00  Reservoir
   
   
  Link Results:
  ----------------------------------------------
                       Flow  Velocity  Headloss
  Link                 m3/h       m/s    /1000m
  ----------------------------------------------
  TU1                 -0.00      0.00      0.00
  TU10                 0.00      0.00      0.00
  TU100              143.00      0.32      0.22
  TU101              143.00      0.20      0.07
  TU102               -0.00      0.00      0.00
  TU103              143.00      0.20      0.08
  TU104              143.00      0.20      0.08
  TU105             1175.00      0.51      0.20
  TU106             1175.00      0.51      0.20
  TU107                0.00      0.00      0.00
  TU108             1175.00      0.51      0.20
  TU109             1318.00      0.58      0.25
  TU11                -0.00      0.00      0.00
  TU110             1318.00      0.58      0.25
  TU111                0.00      0.00      0.00
  TU112               -0.00      0.00      0.00
  TU113               54.00      0.29      0.31
  TU114               54.00      0.29      0.31
  TU115             1452.00      0.51      0.18
  TU116             1452.00      0.51      0.18
  TU117               63.00      0.68      2.29
  TU118                0.00      0.00      0.00
  TU119             1452.00      0.51      0.18
  TU12               167.00      1.91     15.57
  TU120             1515.00      0.54      0.19
  TU121               -0.00      0.00      0.00
  TU122                0.00      0.00      0.00
  TU123               -0.00      0.00      0.00
  TU124               90.00      1.03      5.01
  TU125               90.00      0.66      1.70
  TU126               90.00      0.41      0.55
  TU127               90.00      0.41      0.55
  TU128                0.00      0.00      0.00
  TU129                0.00      0.00      0.00
  TU13               167.00      1.22      5.25
  TU130               -0.00      0.00      0.00
  TU131               91.00      0.40      0.50
  TU132               53.00      0.23      0.19
  TU133              144.00      0.63      1.14
  TU134               -0.00      0.00      0.00
  TU135              251.00      0.55      0.61
  TU136              251.00      0.55      0.61
  TU137              341.00      0.48      0.36
  TU138              341.00      0.48      0.36
  TU139              341.00      0.34      0.15
  TU14               167.00      0.37      0.29
  TU140              397.00      0.39      0.20
  TU141               98.00      1.65     15.02
  TU142               98.00      0.26      0.18
  TU143               -0.00      0.00      0.00
  TU144               -0.00      0.00      0.00
  TU145               -0.00      0.00      0.00
  TU146               -0.00      0.00      0.00
  TU147               -0.00      0.00      0.00
  TU148                0.00      0.00      0.00
  TU149               -0.00      0.00      0.00
  TU15                -0.00      0.00      0.00
  TU150               -0.00      0.00      0.00
  TU151               -0.00      0.00      0.00
  TU152               -0.00      0.00      0.00
  TU15301            119.00      0.17      0.05
  TU15302            119.00      0.17      0.05
  TU1074               0.00      0.00      0.00
  TU154              119.00      0.12      0.02
  TU155               71.00      1.19      8.32
  TU156              190.00      0.19      0.05
  TU157              288.00      0.28      0.11
  TU158               59.00      1.05      6.80
  TU159              347.00      0.34      0.15
  TU16              2112.00      0.38      0.07
  TU160                0.00      0.00      0.00
  TU161              347.00      0.34      0.15
  TU162              828.00      0.60      0.36
  TU163              778.00      0.56      0.32
  TU164              828.00      0.60      0.36
  TU166               -0.00      0.00      0.00
  TU167               -0.00      0.00      0.00
  TU168                0.00      0.00      0.00
  TU169                0.00      0.00      0.00
  TU17                -0.00      0.00      0.00
  TU170                0.00      0.00      0.00
  TU171              778.00      0.56      0.32
  TU17201            140.00      1.84     15.88
  TU17202            140.00      1.84     15.88
  TU1011A             -0.00      0.00      0.00
  TU173              140.00      1.02      3.80
  TU174               72.00      1.28      9.78
  TU175              212.00      0.97      2.61
  TU176              566.00      0.56      0.38
  TU177              566.00      0.56      0.38
  TU178              566.00      0.56      0.38
  TU179              272.00      0.77      1.29
  TU18                 0.00      0.00      0.00
  TU180              272.00      0.77      1.29
  TU181                0.00      0.00      0.00
  TU182               -0.00      0.00      0.00
  TU183                0.00      0.00      0.00
  TU184                0.00      0.00      0.00
  TU185               74.00      0.16      0.07
  TU186              209.00      0.56      0.71
  TU187              209.00      0.46      0.44
  TU188              310.00      0.22      0.06
  TU189              310.00      0.22      0.06
  TU19                -0.00      0.00      0.00
  TU190               -0.00      0.00      0.00
  TU191               -0.00      0.00      0.00
  TU192                0.00      0.00      0.00
  TU193                0.00      0.00      0.00
  TU194               -0.00      0.00      0.00
  TU195                0.00      0.00      0.00
  TU196                0.00      0.00      0.00
  TU197               -0.00      0.00      0.00
  TU198                0.00      0.00      0.00
  TU199                0.00      0.00      0.00
  TU2                  0.00      0.00      0.00
  TU20                -0.00      0.00      0.00
  TU200               -0.00      0.00      0.00
  TU201                0.00      0.00      0.00
  TU203               56.00      0.94      5.40
  TU204               88.00      0.04      0.00
  TU205               88.00      0.04      0.00
  TU21                -0.00      0.00      0.00
  TU22               310.00      0.17      0.03
  TU23               310.00      0.17      0.03
  TU24               310.00      0.17      0.03
  TU25               310.00      0.17      0.00
  TU26               236.00      0.23      0.08
  TU27               236.00      0.23      0.08
  TU28               236.00      0.23      0.08
  TU29               236.00      0.23      0.08
  TU3                  0.00      0.00      0.00
  TU30                 0.00      0.00      0.00
  TU31                -0.00      0.00      0.00
  TU32                74.00      0.84      3.50
  TU33                74.00      0.34      0.39
  TU34                74.00      0.34      0.39
  TU35                -0.00      0.00      0.00
  TU36                 0.00      0.00      0.00
  TU37                74.00      0.21      0.12
  TU38                74.00      0.21      0.12
  TU39                -0.00      0.00      0.00
  TU4                 -0.00      0.00      0.00
  TU40                -0.00      0.00      0.00
  TU41                74.00      0.16      0.07
  TU42                 0.00      0.00      0.00
  TU43                74.00      0.10      0.02
  TU44                74.00      0.10      0.02
  TU45                74.00      0.10      0.02
  TU46                74.00      0.10      0.02
  TU47                -0.00      0.00      0.00
  TU48               166.00      2.18     21.76
  TU49               166.00      1.40      7.32
  TU5                  0.00      0.00      0.00
  TU50                 0.00      0.00      0.00
  TU52               166.00      0.55      0.76
  TU53               166.00      0.55      0.76
  TU54                 0.00      0.00      0.00
  TU55               166.00      0.55      0.76
  TU56                 0.00      0.00      0.00
  TU57               166.00      0.47      0.53
  TU58                 0.00      0.00      0.00
  TU59               166.00      0.47      0.53
  TU6                 74.00      0.10      0.02
  TU61                 0.00      0.00      0.00
  TU62                -0.00      0.00      0.00
  TU63                 0.00      0.00      0.00
  TU65                 0.00      0.00      0.00
  TU66                 0.00      0.00      0.00
  TU67                 0.00      0.00      0.00
  TU68                 0.00      0.00      0.00
  TU69               166.00      0.23      0.10
  TU7                  0.00      0.00      0.00
  TU70               166.00      0.23      0.10
  TU71               166.00      0.23      0.10
  TU72                70.00      0.15      0.06
  TU73                70.00      0.15      0.06
  TU74                70.00      0.15      0.06
  TU75                70.00      0.15      0.06
  TU76                70.00      0.15      0.06
  TU77                70.00      0.15      0.06
  TU78                 0.00      0.00      0.00
  TU79                 0.00      0.00      0.00
  TU8                  0.00      0.00      0.00
  TU80                 0.00      0.00      0.00
  TU81                 0.00      0.00      0.00
  TU82                -0.00      0.00      0.00
  TU83                 0.00      0.00      0.00
  TU84                 0.00      0.00      0.00
  TU85                70.00      0.51      1.08
  TU86                70.00      0.32      0.35
  TU87                70.00      0.37      0.50
  TU88                70.00      0.15      0.06
  TU89                 0.00      0.00      0.00
  TU9                  0.00      0.00      0.00
  TU90                 0.00      0.00      0.00
  TU91                -0.00      0.00      0.00
  TU92               143.00      0.65      1.27
  TU93               143.00      0.41      0.40
  TU94                 0.00      0.00      0.00
  TU95               143.00      0.41      0.40
  TU96                 0.00      0.00      0.00
  TU97                 0.00      0.00      0.00
  TU98                 0.00      0.00      0.00
  TU99               143.00      0.32      0.22
  TU4000              83.00      1.09      6.09
  TU60                -0.00      0.00      0.00
  TU64                 0.00      0.00      0.00
  TU51               166.00      0.88      2.39
  2                    0.00      0.00     36.00
  3                  166.00      3.42      0.00
   
  Analysis ended Fri Sep  8 13:23:31 2023
