  Page 1                                    Fri Sep  8 13:07:59 2023

  ******************************************************************
  *                           E P A N E T                          *
  *                   Hydraulic and Water Quality                  *
  *                   Analysis for Pipe Networks                   *
  *                         Version 2.2                            *
  ******************************************************************
  
  Analysis begun Fri Sep  8 13:07:59 2023

   
  Node Results:
  ----------------------------------------------
                     Demand      Head  Pressure
  Node                 m3/h         m         m
  ----------------------------------------------
  3661                 0.00    428.97     50.83
  482                  0.00    428.97     82.97
  661                  0.00    423.90     93.90
  6610                 0.00    423.88     63.88
  6611                 0.00    428.59     93.59
  6612                 0.00    427.33     64.96
  6613                 0.00    427.53     72.53
  6615                 0.00    425.57     86.57
  6616                 0.00    424.80     63.80
  6617                 0.00    424.10     81.10
  6618                 0.00    425.28     77.28
  662                  0.00    428.81    100.81
  6620                 0.00    424.66    116.66
  6621                 0.00    424.66     96.66
  6622                 0.00    424.66     87.66
  6623                 0.00    424.66     73.66
  6624                 0.00    424.67     72.67
  6625                 0.00    387.53     75.53
  6626                 0.00    424.17    103.17
  6627                 0.00    423.56    102.56
  6628                 0.00    428.69     89.69
  6629                 0.00    428.69     88.69
  663                  0.00    428.68     87.68
  6630                 0.00    428.45     88.65
  6632                 0.00    428.77     88.77
  6633                 0.00    428.93     66.29
  6634                 0.00    428.94     57.94
  6635                 0.00    428.97     76.97
  6636                 0.00    428.97     72.97
  6637                 0.00    428.97     61.97
  6639                 0.00    425.64     65.64
  664                  0.00    428.66     80.66
  6640                 0.00    425.13     65.13
  6641                 0.00    426.53     67.85
  6642                 0.00    426.45     70.45
  6643                 0.00    428.07     76.07
  6644                 0.00    428.25     76.25
  6645                 0.00    428.31     78.31
  6646                 0.00    428.66     81.64
  6648                 0.00    428.66     82.65
  6649                 0.00    428.66     89.66
  665                  0.00    428.66     83.66
  666                  0.00    428.72     88.72
  6665                 0.00    428.97     63.83
  6666                 0.00    428.97     61.31
  667                  0.00    428.24     76.24
  668                  0.00    423.89     93.89
  669                  0.00    428.69     83.69
  1                    0.00    428.87     98.87
  10                   0.00    428.07     76.07
  100                134.00    426.41     71.41
  100B                80.00    424.67     66.67
  101                 98.00    427.24     74.24
  103                  0.00    428.57     89.57
  104                  0.00    428.57     89.57
  105                  0.00    427.53     72.53
  106                 54.00    427.46     72.46
  107                  0.00    425.57     86.57
  108                  0.00    425.57     87.01
  109                  0.00    425.57     88.57
  11B                  0.00    428.65     85.65
  110                  0.00    425.23     79.23
  111                 46.00    425.05     86.27
  112                  0.00    425.15     83.15
  113                  0.00    424.86    101.86
  114                  0.00    424.42     76.42
  115                  0.00    424.23     78.23
  116                  0.00    424.30     79.30
  117                  0.00    424.10     81.10
  118                 80.00    422.97     83.97
  119                  0.00    422.97    100.16
  12                   0.00    428.62     98.28
  121                 63.00    424.56     75.76
  122                 70.00    420.09     72.19
  123                  0.00    423.71     77.71
  125                  0.00    424.54     73.54
  126                  0.00    424.32     76.32
  127                 97.00    423.46     80.13
  128                  0.00    424.77     62.77
  129                  0.00    424.24     68.24
  130                136.00    423.96     82.88
  130B                62.00    424.10     71.10
  132                 57.00    422.23     89.23
  134                  0.00    423.56    102.56
  135                  0.00    422.97    106.97
  137                 58.00    419.13    110.13
  139                  0.00    423.73     63.73
  14                   0.00    428.57     90.57
  140                 60.00    423.73     72.73
  141                  0.00    423.73     71.73
  142                  0.00    423.73     62.73
  143                  0.00    422.23     81.26
  144                 77.00    424.49     65.49
  146                  0.00    424.42     78.42
  147                  0.00    424.17    103.17
  148                  0.00    424.38     91.38
  149                 59.00    387.30     74.09
  15                   0.00    428.59     93.59
  150                  0.00    387.16     79.09
  151                 90.00    386.36     81.12
  152                 40.00    385.63     75.61
  153                  0.00    385.88     75.88
  154                  0.00    424.66     99.66
  157                  0.00    424.66    121.66
  158A                 0.00    424.66    103.66
  158B                 0.00    424.66    103.66
  16B                  0.00    428.59     94.59
  160                  0.00    428.97     61.97
  162                  0.00    428.97     60.97
  163                  0.00    428.97     54.97
  164                  0.00    428.97     69.31
  165                  0.00    428.97     67.67
  166                  0.00    428.97     67.96
  167                  0.00    428.97     58.33
  169                  0.00    428.97     62.47
  17A                  0.00    428.59     93.59
  170                  0.00    428.97     69.97
  17B                  0.00    428.59     93.59
  171                  0.00    428.97     76.97
  172                  0.00    428.97     88.97
  18B                  0.00    428.59    103.59
  19                   0.00    428.93     70.93
  2                    0.00    428.82    102.82
  20                   0.00    428.97     64.97
  2002                 0.00    428.69     78.69
  2003                 0.00    428.69     78.69
  21                   0.00    425.77     64.17
  22                   0.00    425.77     64.17
  222                  0.00    425.65     75.65
  24                   0.00    425.57     81.57
  25                   0.00    425.45     80.45
  26                   0.00    425.28     77.28
  27                   0.00    425.33     75.33
  28                   0.00    425.20     75.20
  29                  56.00    424.85     68.85
  3                    0.00    428.75     88.40
  30                   0.00    424.81     63.81
  3002                 0.00    428.97     42.97
  3004                 0.00    428.97     42.97
  3005                 0.00    428.97     42.97
  3008                 0.00    428.97     43.97
  3012                 0.00    428.97     58.24
  3013                 0.00    428.97     64.04
  3016                 0.00    428.97     63.97
  3017                 0.00    428.97     46.97
  3018                 0.00    428.97     51.97
  3019                 0.00    428.97     59.58
  3020                 0.00    428.97     60.86
  3024                 0.00    428.97     64.03
  31                   0.00    424.72     66.93
  3152                 0.00    428.97     62.77
  32                   0.00    424.75     66.75
  34                  54.00    424.56     73.54
  35                   0.00    424.66     87.66
  36                   0.00    424.66     96.66
  39                   0.00    424.66    111.66
  41                   0.00    424.66    117.66
  46                   0.00    428.97     52.97
  47                   0.00    428.97     70.79
  48                   0.00    428.97     84.97
  49                   0.00    428.97     76.97
  5                    0.00    428.71     81.71
  52                   0.00    428.97     77.97
  53                 118.00    426.75     70.75
  54                   0.00    428.91     83.91
  55                   0.00    428.87     98.87
  56                   0.00    428.87     94.87
  58                   0.00    428.87     95.87
  59                   0.00    428.87     99.87
  6                   60.00    428.04     76.04
  60                   0.00    428.75     83.75
  61                   0.00    428.75     89.75
  62                   0.00    428.24     74.24
  64                   0.00    428.79     97.79
  65                   0.00    428.77     88.77
  66                   0.00    428.77     89.77
  67                   0.00    428.74     96.74
  68                   0.00    428.45     89.45
  69                  48.00    427.91     76.91
  7                    0.00    428.67     75.67
  70                   0.00    428.69     88.69
  71                  67.00    427.55     90.55
  72                   0.00    428.24     72.24
  73                   0.00    428.03     73.03
  77                   0.00    428.24     72.24
  78                   0.00    428.24     88.10
  79                   0.00    428.67     75.67
  8                    0.00    428.31     78.31
  80                   0.00    428.66     79.66
  81                   0.00    428.66     69.66
  82                   0.00    428.66     70.66
  85                   0.00    428.69     89.69
  86                   0.00    428.69     91.69
  87                   0.00    427.55     67.55
  88                   0.00    427.33     74.33
  89                  84.00    426.86     59.86
  90                   0.00    426.45     70.45
  91                 180.00    425.22     53.22
  92                  63.00    423.82     63.82
  91B                180.00    423.53     63.53
  94                   0.00    428.66     89.66
  95                   0.00    428.66     85.66
  97                   0.00    428.66     97.66
  99                   0.00    426.86     76.86
  74                   0.00    427.99     69.28
  1074                 0.00    427.99     69.99
  11A                  0.00    428.66     85.66
  1011                 0.00    428.66     85.66
  4                    0.00    423.53    111.53
  9                    0.00    424.66    114.66
  0                -1166.00    429.00      0.00  Reservoir
  balsa            -1105.00    425.77      0.00  Reservoir
   
   
  Link Results:
  ----------------------------------------------
                       Flow  Velocity  Headloss
  Link                 m3/h       m/s    /1000m
  ----------------------------------------------
  TU1                 63.00      0.69      2.35
  TU10                 0.00      0.00      0.00
  TU100              115.00      0.25      0.15
  TU101              115.00      0.16      0.05
  TU102                0.00      0.00      0.00
  TU103              115.00      0.16      0.05
  TU104              115.00      0.16      0.05
  TU105              933.00      0.41      0.13
  TU106              933.00      0.41      0.13
  TU107                0.00      0.00      0.00
  TU108              933.00      0.41      0.13
  TU109             1048.00      0.46      0.16
  TU11               152.00      0.70      1.42
  TU110             1048.00      0.46      0.16
  TU111                0.00      0.00      0.00
  TU112               -0.00      0.00      0.00
  TU113                0.00      0.00      0.00
  TU114                0.00      0.00      0.00
  TU115             1048.00      0.37      0.10
  TU116             1048.00      0.37      0.10
  TU117              118.00      1.27      7.17
  TU118                0.00      0.00      0.00
  TU119             1048.00      0.37      0.10
  TU12                 0.00      0.00      0.00
  TU120             1166.00      0.41      0.12
  TU121                0.00      0.00      0.00
  TU122                0.00      0.00      0.00
  TU123               -0.00      0.00      0.00
  TU124                0.00      0.00      0.00
  TU125               -0.00      0.00      0.00
  TU126               -0.00      0.00      0.00
  TU127               -0.00      0.00      0.00
  TU128                0.00      0.00      0.00
  TU129                0.00      0.00      0.00
  TU13                 0.00      0.00      0.00
  TU130               -0.00      0.00      0.00
  TU131               -0.00      0.00      0.00
  TU132                0.00      0.00      0.00
  TU133               -0.00      0.00      0.00
  TU134              180.00      1.94     15.60
  TU135               -0.00      0.00      0.00
  TU136                0.00      0.00      0.00
  TU137                0.00      0.00      0.00
  TU138                0.00      0.00      0.00
  TU139                0.00      0.00      0.00
  TU14               152.00      0.34      0.25
  TU140                0.00      0.00      0.00
  TU141                0.00      0.00      0.00
  TU142                0.00      0.00      0.00
  TU143              180.00      0.78      1.71
  TU144               80.00      0.86      3.53
  TU145              243.00      1.68      9.18
  TU146              323.00      1.41      5.00
  TU147              503.00      1.36      3.53
  TU148               -0.00      0.00      0.00
  TU149              134.00      0.93      3.08
  TU15                -0.00      0.00      0.00
  TU150              134.00      0.93      3.08
  TU151              637.00      0.90      1.13
  TU152               -0.00      0.00      0.00
  TU15301            721.00      1.02      1.42
  TU15302            721.00      1.02      1.42
  TU1074               0.00      0.00      0.00
  TU154              721.00      0.71      0.59
  TU155                0.00      0.00      0.00
  TU156              721.00      0.71      0.59
  TU157              721.00      0.71      0.59
  TU158               60.00      1.07      7.01
  TU159              781.00      0.77      0.68
  TU16              1166.00      0.21      0.02
  TU160                0.00      0.00      0.00
  TU161              781.00      0.77      0.68
  TU162              152.00      0.11      0.02
  TU163              152.00      0.11      0.02
  TU164              152.00      0.11      0.02
  TU166               -0.00      0.00      0.00
  TU167               -0.00      0.00      0.00
  TU168                0.00      0.00      0.00
  TU169                0.00      0.00      0.00
  TU17                -0.00      0.00      0.00
  TU170                0.00      0.00      0.00
  TU171              152.00      0.11      0.02
  TU17201             -0.00      0.00      0.00
  TU17202              0.00      0.00      0.00
  TU1011A             -0.00      0.00      0.00
  TU173               -0.00      0.00      0.00
  TU174               -0.00      0.00      0.00
  TU175               -0.00      0.00      0.00
  TU176              152.00      0.15      0.03
  TU177              152.00      0.15      0.04
  TU178              152.00      0.15      0.03
  TU179                0.00      0.00      0.00
  TU18                 0.00      0.00      0.00
  TU180                0.00      0.00      0.00
  TU181                0.00      0.00      0.00
  TU182                0.00      0.00      0.00
  TU183                0.00      0.00      0.00
  TU184                0.00      0.00      0.00
  TU185              310.00      0.69      0.89
  TU186               -0.00      0.00      0.00
  TU187               -0.00      0.00      0.00
  TU188             1105.00      0.80      0.61
  TU189             1105.00      0.80      0.61
  TU19                 0.00      0.00      0.00
  TU190               40.00      0.53      1.62
  TU191               -0.00      0.00      0.00
  TU192                0.00      0.00      0.00
  TU193                0.00      0.00      0.00
  TU194               -0.00      0.00      0.00
  TU195                0.00      0.00      0.00
  TU196                0.00      0.00      0.00
  TU197               -0.00      0.00      0.00
  TU198                0.00      0.00      0.00
  TU199                0.00      0.00      0.00
  TU2                  0.00      0.00      0.00
  TU20                 0.00      0.00      0.00
  TU200               -0.00      0.00      0.00
  TU201                0.00      0.00      0.00
  TU203                0.00      0.00      0.00
  TU204                0.00      0.00      0.00
  TU205                0.00      0.00      0.00
  TU21               130.00      1.09      4.67
  TU22              1105.00      0.61      0.32
  TU23              1105.00      0.61      0.32
  TU24              1105.00      0.61      0.32
  TU25              1105.00      0.61      0.37
  TU26               693.00      0.68      0.55
  TU27               693.00      0.68      0.55
  TU28               749.00      0.74      0.63
  TU29               749.00      0.74      0.63
  TU3                  0.00      0.00      0.00
  TU30                 0.00      0.00      0.00
  TU31                80.00      0.91      4.04
  TU32                 0.00      0.00      0.00
  TU33                80.00      0.37      0.44
  TU34                80.00      0.37      0.44
  TU35                70.00      1.25      9.29
  TU36                70.00      0.80      3.17
  TU37               150.00      0.43      0.44
  TU38               150.00      0.43      0.44
  TU39                97.00      1.11      5.74
  TU4                721.00      1.02      1.42
  TU40                97.00      0.71      1.95
  TU41               247.00      0.55      0.59
  TU42                 0.00      0.00      0.00
  TU43               356.00      0.50      0.39
  TU44               356.00      0.50      0.39
  TU45               356.00      0.50      0.39
  TU46               356.00      0.50      0.39
  TU47                -0.00      0.00      0.00
  TU48                 0.00      0.00      0.00
  TU49                 0.00      0.00      0.00
  TU5                721.00      1.02      1.42
  TU50                 0.00      0.00      0.00
  TU52                 0.00      0.00      0.00
  TU53                 0.00      0.00      0.00
  TU54                 0.00      0.00      0.00
  TU55                 0.00      0.00      0.00
  TU56                 0.00      0.00      0.00
  TU57                 0.00      0.00      0.00
  TU58                54.00      0.96      5.79
  TU59                54.00      0.15      0.07
  TU6                310.00      0.44      0.30
  TU61                 0.00      0.00      0.00
  TU62               130.00      0.69      1.53
  TU63                59.00      1.22      9.72
  TU65                 0.00      0.00      0.00
  TU66               189.00      0.63      0.96
  TU67               189.00      0.54      0.66
  TU68               189.00      0.54      0.67
  TU69               243.00      0.34      0.20
  TU7                  0.00      0.00      0.00
  TU70               243.00      0.34      0.20
  TU71               243.00      0.34      0.20
  TU72               175.00      0.39      0.32
  TU73               311.00      0.69      0.90
  TU74               373.00      0.82      1.25
  TU75               373.00      0.82      1.25
  TU76               450.00      0.99      1.77
  TU77               450.00      0.99      1.77
  TU78                58.00      1.20      9.42
  TU79                58.00      0.76      3.17
  TU8                 98.00      1.06      5.11
  TU80                 0.00      0.00      0.00
  TU81                58.00      0.49      1.08
  TU82                -0.00      0.00      0.00
  TU83                57.00      0.75      3.07
  TU84                 0.00      0.00      0.00
  TU85                 0.00      0.00      0.00
  TU86                 0.00      0.00      0.00
  TU87                60.00      0.32      0.38
  TU88               117.00      0.26      0.15
  TU89                 0.00      0.00      0.00
  TU9                 54.00      0.91      5.05
  TU90                 0.00      0.00      0.00
  TU91                -0.00      0.00      0.00
  TU92                 0.00      0.00      0.00
  TU93                 0.00      0.00      0.00
  TU94                67.00      0.76      2.93
  TU95                67.00      0.19      0.10
  TU96                 0.00      0.00      0.00
  TU97                48.00      0.85      4.67
  TU98                48.00      0.55      1.60
  TU99               115.00      0.25      0.15
  TU4000               0.00      0.00      0.00
  TU60                40.00      0.82      4.79
  TU64               189.00      1.00      3.03
  TU51                 0.00      0.00      0.00
  2                  189.00      3.90     36.00
  3                    0.00      0.00      0.00
   
  Analysis ended Fri Sep  8 13:07:59 2023
