  Page 1                                    Fri Sep  8 13:13:06 2023

  ******************************************************************
  *                           E P A N E T                          *
  *                   Hydraulic and Water Quality                  *
  *                   Analysis for Pipe Networks                   *
  *                         Version 2.2                            *
  ******************************************************************
  
  Analysis begun Fri Sep  8 13:13:06 2023

   
  Node Results:
  ----------------------------------------------
                     Demand      Head  Pressure
  Node                 m3/h         m         m
  ----------------------------------------------
  3661                 0.00    428.81     50.67
  482                  0.00    428.55     82.55
  661                  0.00    422.69     92.69
  6610                 0.00    422.35     62.35
  6611                 0.00    426.60     91.60
  6612                 0.00    425.39     63.02
  6613                 0.00    425.87     70.87
  6615                 0.00    423.45     84.45
  6616                 0.00    422.96     61.96
  6617                 0.00    420.67     77.67
  6618                 0.00    423.21     75.21
  662                  0.00    427.95     99.95
  6620                 0.00    421.88    113.88
  6621                 0.00    422.49     94.49
  6622                 0.00    422.63     85.63
  6623                 0.00    422.77     71.77
  6624                 0.00    422.80     70.80
  6625                 0.00    386.02     74.02
  6626                 0.00    422.46    101.46
  6627                 0.00    421.45    100.45
  6628                 0.00    426.35     87.35
  6629                 0.00    427.02     87.02
  663                  0.00    427.37     86.37
  6630                 0.00    427.54     87.74
  6632                 0.00    427.79     87.79
  6633                 0.00    428.61     65.97
  6634                 0.00    428.68     57.68
  6635                 0.00    428.65     76.65
  6636                 0.00    428.65     72.65
  6637                 0.00    428.55     61.55
  6639                 0.00    423.95     63.95
  664                  0.00    427.18     79.18
  6640                 0.00    423.46     63.46
  6641                 0.00    424.74     66.06
  6642                 0.00    424.69     68.69
  6643                 0.00    426.02     74.02
  6644                 0.00    426.31     74.31
  6645                 0.00    426.44     76.44
  6646                 0.00    425.34     78.32
  6648                 0.00    425.60     79.59
  6649                 0.00    426.98     87.98
  665                  0.00    427.08     82.08
  666                  0.00    427.54     87.54
  6665                 0.00    427.74     62.60
  6666                 0.00    428.32     60.66
  667                  0.00    426.27     74.27
  668                  0.00    422.69     92.69
  669                  0.00    426.88     81.88
  1                    0.00    428.26     98.26
  10                   0.00    426.02     74.02
  100                 99.00    424.67     69.67
  100B                87.00    422.93     64.93
  101                116.00    425.47     72.47
  103                  0.00    424.07     85.07
  104                166.00    423.88     84.88
  105                  0.00    425.87     70.87
  106                  0.00    425.87     70.87
  107                  0.00    423.45     84.45
  108                  0.00    423.45     84.89
  109                  0.00    423.45     86.45
  11B                115.00    427.03     84.03
  110                  0.00    423.17     77.17
  111                  0.00    422.97     84.19
  112                  0.00    423.07     81.07
  113                  0.00    422.70     99.70
  114                 57.00    421.77     73.77
  115                 54.00    421.06     75.06
  116                  0.00    421.43     76.43
  117                 72.00    420.58     77.58
  118                 74.00    419.69     80.69
  119                  0.00    419.69     96.88
  12                   0.00    426.85     96.51
  121                 54.00    422.27     73.47
  122                 63.00    417.96     70.06
  123                  0.00    420.94     74.94
  125                  0.00    422.24     71.24
  126                  0.00    422.24     74.24
  127                  0.00    422.24     78.91
  128                 51.00    422.96     60.96
  129                  0.00    422.84     66.84
  130                  0.00    422.76     81.68
  130B                 0.00    422.81     69.81
  132                  0.00    421.03     88.03
  134                 61.00    421.15    100.15
  135                 58.00    420.86    104.86
  137                  0.00    420.86    111.86
  139                  0.00    422.69     62.69
  14                 105.00    426.50     88.50
  140                  0.00    422.69     71.69
  141                  0.00    422.69     70.69
  142                  0.00    422.69     61.69
  143                 57.00    418.59     77.62
  144                  0.00    422.91     63.91
  146                  0.00    422.63     76.63
  147                  0.00    422.46    101.46
  148                  0.00    422.60     89.60
  149                  0.00    386.02     72.81
  15                   0.00    426.60     91.60
  150                 81.00    385.51     77.44
  151                  0.00    385.24     80.00
  152                 72.00    383.14     73.12
  153                  0.00    383.86     73.86
  154                  0.00    422.42     97.42
  157                  0.00    421.88    118.88
  158A                63.00    413.22     92.22
  158B                63.00    413.20     92.20
  16B                  0.00    426.62     92.62
  160                 61.00    428.52     61.52
  162                  0.00    428.42     60.42
  163                 88.00    428.02     54.02
  164                  0.00    428.21     68.55
  165                 63.00    427.74     66.44
  166                 95.00    427.74     66.73
  167                  0.00    427.74     57.10
  169                  0.00    428.14     61.64
  17A                 42.00    426.59     91.59
  170                  0.00    428.61     69.61
  17B                  0.00    426.59     91.59
  171                  0.00    428.65     76.65
  172                  0.00    428.65     88.65
  18B                  0.00    426.59    101.59
  19                   0.00    428.61     70.61
  2                    0.00    428.02    102.02
  20                  85.00    428.81     64.81
  2002                 0.00    426.88     76.88
  2003                 0.00    426.88     76.88
  21                  63.00    423.61     62.01
  22                   0.00    423.60     62.00
  222                 69.00    423.50     73.50
  24                   0.00    423.45     79.45
  25                   0.00    423.36     78.36
  26                   0.00    423.21     75.21
  27                   0.00    423.27     73.27
  28                   0.00    423.20     73.20
  29                  48.00    422.99     66.99
  3                    0.00    427.69     87.34
  30                   0.00    422.97     61.97
  3002                 0.00    428.81     42.81
  3004                 0.00    428.81     42.81
  3005                 0.00    428.81     42.81
  3008                 0.00    428.81     43.81
  3012                 0.00    428.81     58.08
  3013                 0.00    428.81     63.88
  3016               134.00    428.81     63.81
  3017                 0.00    428.82     46.82
  3018                72.00    428.44     51.44
  3019                 0.00    428.81     59.42
  3020                 0.00    428.81     60.70
  3024                 0.00    428.81     63.87
  31                   0.00    422.86     65.07
  3152                 0.00    428.81     62.61
  32                   0.00    422.90     64.90
  34                   0.00    422.77     71.75
  35                   0.00    422.63     85.63
  36                   0.00    422.49     94.49
  39                   0.00    422.22    109.22
  41                   0.00    421.68    114.68
  46                   0.00    428.69     52.69
  47                   0.00    428.14     69.96
  48                   0.00    428.55     84.55
  49                   0.00    428.55     76.55
  5                    0.00    427.52     80.52
  52                   0.00    428.55     77.55
  53                   0.00    428.68     72.68
  54                   0.00    428.48     83.48
  55                   0.00    427.12     97.12
  56                   0.00    426.56     92.56
  58                 133.00    421.68     88.68
  59                 170.00    417.68     88.68
  6                    0.00    426.31     74.31
  60                  44.00    422.53     77.53
  61                  79.00    421.43     82.43
  62                 107.00    421.39     67.39
  64                   0.00    427.88     96.88
  65                   0.00    427.79     87.79
  66                   0.00    427.79     88.79
  67                   0.00    427.64     95.64
  68                   0.00    427.54     88.54
  69                   0.00    427.54     76.54
  7                    0.00    427.27     74.27
  70                 154.00    426.35     86.35
  71                 125.00    423.48     86.48
  72                 101.00    425.63     69.63
  73                 170.00    425.96     70.96
  77                 125.00    421.74     65.74
  78                   0.00    425.63     85.49
  79                   0.00    427.26     74.26
  8                   65.00    426.21     76.21
  80                   0.00    427.13     78.13
  81                   0.00    425.60     66.60
  82                 126.00    424.61     66.61
  85                   0.00    426.35     87.35
  86                   0.00    426.35     89.35
  87                   0.00    425.56     65.56
  88                   0.00    425.39     72.39
  89                  71.00    425.01     58.01
  90                   0.00    424.69     68.69
  91                 156.00    423.62     51.62
  92                  61.00    422.30     62.30
  91B                167.00    422.05     62.05
  94                  74.00    426.40     87.40
  95                   0.00    426.98     83.98
  97                   0.00    426.98     95.98
  99                   0.00    425.01     75.01
  74                  87.00    423.17     64.46
  1074                 0.00    425.92     67.92
  11A                  0.00    426.98     83.98
  1011                 0.00    426.98     83.98
  4                    0.00    422.02    110.02
  9                    0.00    421.88    111.88
  0                -3343.00    429.00      0.00  Reservoir
  balsa            -1060.00    423.61     -0.00  Reservoir
   
   
  Link Results:
  ----------------------------------------------
                       Flow  Velocity  Headloss
  Link                 m3/h       m/s    /1000m
  ----------------------------------------------
  TU1                 61.00      0.67      2.21
  TU10                 0.00      0.00      0.00
  TU100              279.00      0.62      0.74
  TU101              279.00      0.39      0.25
  TU102                0.00      0.00      0.00
  TU103              279.00      0.39      0.25
  TU104              279.00      0.39      0.25
  TU105             2040.00      0.89      0.55
  TU106             2040.00      0.89      0.55
  TU107                0.00      0.00      0.00
  TU108             2163.00      0.94      0.62
  TU109             2442.00      1.07      0.77
  TU11               116.00      0.53      0.87
  TU110             2442.00      1.07      0.77
  TU111              170.00      2.24     22.74
  TU112              303.00      2.21     15.75
  TU113              303.00      1.61      7.22
  TU114              303.00      1.61      7.22
  TU115             2745.00      0.97      0.57
  TU116             2745.00      0.97      0.57
  TU117                0.00      0.00      0.00
  TU118                0.00      0.00      0.00
  TU119             2745.00      0.97      0.57
  TU12               166.00      1.90     15.40
  TU120             2745.00      0.97      0.57
  TU121                0.00      0.00      0.00
  TU122                0.00      0.00      0.00
  TU123               -0.00      0.00      0.00
  TU124                0.00      0.00      0.00
  TU125               -0.00      0.00      0.00
  TU126               -0.00      0.00      0.00
  TU127               -0.00      0.00      0.00
  TU128                0.00      0.00      0.00
  TU129                0.00      0.00      0.00
  TU13               166.00      1.21      5.19
  TU130               63.00      0.27      0.26
  TU131              158.00      0.69      1.35
  TU132                0.00      0.00      0.00
  TU133              158.00      0.69      1.35
  TU134              167.00      1.80     13.58
  TU135              246.00      0.54      0.59
  TU136              307.00      0.68      0.88
  TU137              307.00      0.43      0.30
  TU138              307.00      0.43      0.30
  TU139              307.00      0.30      0.12
  TU14               387.00      0.86      1.34
  TU140              379.00      0.37      0.18
  TU141              107.00      1.80     17.66
  TU142              333.00      0.90      1.65
  TU143              156.00      0.68      1.32
  TU144               87.00      0.94      4.11
  TU145              228.00      1.58      8.16
  TU146              315.00      1.37      4.78
  TU147              471.00      1.27      3.13
  TU148               -0.00      0.00      0.00
  TU149               99.00      0.69      1.77
  TU15                -0.00      0.00      0.00
  TU150               99.00      0.69      1.77
  TU151              570.00      0.81      0.92
  TU152               -0.00      0.00      0.00
  TU15301            728.00      1.03      1.45
  TU15302            641.00      0.91      1.15
  TU1074              87.00      1.14      6.63
  TU154              898.00      0.88      0.88
  TU155                0.00      0.00      0.00
  TU156              898.00      0.88      0.88
  TU157             1231.00      1.21      1.57
  TU158                0.00      0.00      0.00
  TU159             1231.00      1.21      1.57
  TU16              3343.00      0.60      0.16
  TU160               65.00      1.16      8.11
  TU161             1296.00      1.27      1.73
  TU162              744.00      0.54      0.29
  TU163              744.00      0.54      0.29
  TU164              744.00      0.54      0.29
  TU166               -0.00      0.00      0.00
  TU167              126.00      1.66     13.08
  TU168              126.00      1.66     13.08
  TU169              126.00      1.06      4.41
  TU17                -0.00      0.00      0.00
  TU170              126.00      0.58      1.01
  TU171              618.00      0.45      0.21
  TU17201             -0.00      0.00      0.00
  TU17202              0.00      0.00      0.00
  TU1011A             -0.00      0.00      0.00
  TU173               -0.00      0.00      0.00
  TU174               74.00      1.32     10.28
  TU175               74.00      0.34      0.39
  TU176              429.00      0.42      0.23
  TU177              544.00      0.53      0.35
  TU178              429.00      0.42      0.23
  TU179               42.00      0.12      0.04
  TU18                 0.00      0.00      0.00
  TU180               42.00      0.12      0.04
  TU181                0.00      0.00      0.00
  TU182                0.00      0.00      0.00
  TU183              123.00      1.40      8.87
  TU184                0.00      0.00      0.00
  TU185              374.00      0.83      1.26
  TU186              158.00      0.43      0.43
  TU187              246.00      0.54      0.59
  TU188              928.00      0.67      0.44
  TU189              928.00      0.67      0.44
  TU19                 0.00      0.00      0.00
  TU190               72.00      0.95      4.70
  TU191               79.00      1.41     11.59
  TU192                0.00      0.00      0.00
  TU193                0.00      0.00      0.00
  TU194               -0.00      0.00      0.00
  TU195                0.00      0.00      0.00
  TU196                0.00      0.00      0.00
  TU197               -0.00      0.00      0.00
  TU198                0.00      0.00      0.00
  TU199                0.00      0.00      0.00
  TU2                  0.00      0.00      0.00
  TU20                 0.00      0.00      0.00
  TU200               -0.00      0.00      0.00
  TU201                0.00      0.00      0.00
  TU203               72.00      1.21      8.53
  TU204               85.00      0.04      0.00
  TU205              219.00      0.10      0.01
  TU21                72.00      0.61      1.60
  TU22               928.00      0.51      0.23
  TU23               997.00      0.55      0.26
  TU24               997.00      0.55      0.27
  TU25              1060.00      0.59      0.25
  TU26               506.00      0.50      0.31
  TU27               506.00      0.50      0.31
  TU28               554.00      0.54      0.36
  TU29               554.00      0.54      0.36
  TU3                  0.00      0.00      0.00
  TU30                 0.00      0.00      0.00
  TU31                74.00      0.84      3.51
  TU32                72.00      0.82      3.33
  TU33               146.00      0.67      1.32
  TU34               200.00      0.92      2.34
  TU35                63.00      1.12      7.66
  TU36                63.00      0.72      2.62
  TU37               263.00      0.75      1.21
  TU38               320.00      0.91      1.74
  TU39                -0.00      0.00      0.00
  TU4                641.00      0.91      1.15
  TU40                 0.00      0.00      0.00
  TU41               320.00      0.71      0.95
  TU42                88.00      0.61      1.43
  TU43               374.00      0.53      0.43
  TU44               374.00      0.53      0.43
  TU45               374.00      0.53      0.43
  TU46               374.00      0.53      0.43
  TU47                -0.00      0.00      0.00
  TU48               126.00      1.66     13.08
  TU49               126.00      1.06      4.41
  TU5                641.00      0.91      1.15
  TU50                 0.00      0.00      0.00
  TU52               126.00      0.42      0.46
  TU53               126.00      0.42      0.46
  TU54                 0.00      0.00      0.00
  TU55               126.00      0.42      0.46
  TU56                 0.00      0.00      0.00
  TU57               126.00      0.36      0.32
  TU58                 0.00      0.00      0.00
  TU59               126.00      0.36      0.32
  TU6                374.00      0.53      0.43
  TU61                 0.00      0.00      0.00
  TU62               153.00      0.81      2.06
  TU63                 0.00      0.00      0.00
  TU65                 0.00      0.00      0.00
  TU66               153.00      0.51      0.66
  TU67               153.00      0.43      0.45
  TU68               153.00      0.43      0.45
  TU69               279.00      0.39      0.25
  TU7                125.00      2.10     23.53
  TU70               279.00      0.39      0.25
  TU71               279.00      0.39      0.25
  TU72               176.00      0.39      0.32
  TU73               176.00      0.39      0.32
  TU74               176.00      0.39      0.32
  TU75               176.00      0.39      0.32
  TU76               176.00      0.39      0.32
  TU77               227.00      0.50      0.51
  TU78                 0.00      0.00      0.00
  TU79                58.00      0.76      3.17
  TU8                116.00      1.25      6.95
  TU80                61.00      1.26     10.32
  TU81               119.00      1.00      3.98
  TU82                57.00      1.01      6.38
  TU83                57.00      0.75      3.07
  TU84                 0.00      0.00      0.00
  TU85                 0.00      0.00      0.00
  TU86                 0.00      0.00      0.00
  TU87                 0.00      0.00      0.00
  TU88                57.00      0.13      0.04
  TU89                 0.00      0.00      0.00
  TU9                  0.00      0.00      0.00
  TU90                 0.00      0.00      0.00
  TU91                -0.00      0.00      0.00
  TU92               154.00      0.70      1.45
  TU93               154.00      0.44      0.46
  TU94               125.00      1.43      9.13
  TU95               279.00      0.79      1.35
  TU96                 0.00      0.00      0.00
  TU97                 0.00      0.00      0.00
  TU98                 0.00      0.00      0.00
  TU99               279.00      0.62      0.74
  TU4000              63.00      0.83      3.68
  TU60                72.00      1.48     13.99
  TU64               153.00      0.81      2.06
  TU51               126.00      0.67      1.45
  2                  153.00      3.15     36.00  PBV
  3                  126.00      2.60      0.00  PBV
   
  Analysis ended Fri Sep  8 13:13:06 2023
