  Page 1                                    Fri Sep  8 13:08:29 2023

  ******************************************************************
  *                           E P A N E T                          *
  *                   Hydraulic and Water Quality                  *
  *                   Analysis for Pipe Networks                   *
  *                         Version 2.2                            *
  ******************************************************************
  
  Analysis begun Fri Sep  8 13:08:29 2023

   
  Node Results:
  ----------------------------------------------
                     Demand      Head  Pressure
  Node                 m3/h         m         m
  ----------------------------------------------
  3661                 0.00    428.99     50.85
  482                  0.00    428.99     82.99
  661                  0.00    425.19     95.19
  6610                 0.00    428.41     68.41
  6611                 0.00    428.73     93.73
  6612                 0.00    428.66     66.29
  6613                 0.00    428.55     73.55
  6615                 0.00    425.27     86.27
  6616                 0.00    425.19     64.19
  6617                 0.00    424.88     81.88
  6618                 0.00    425.24     77.24
  662                  0.00    428.94    100.94
  6620                 0.00    425.08    117.08
  6621                 0.00    425.08     97.08
  6622                 0.00    425.08     88.08
  6623                 0.00    425.08     74.08
  6624                 0.00    425.08     73.08
  6625                 0.00    387.59     75.59
  6626                 0.00    424.43    103.43
  6627                 0.00    425.19    104.19
  6628                 0.00    428.94     89.94
  6629                 0.00    428.94     88.94
  663                  0.00    428.89     87.89
  6630                 0.00    428.94     89.14
  6632                 0.00    428.94     88.94
  6633                 0.00    428.98     66.34
  6634                 0.00    428.98     57.98
  6635                 0.00    428.99     76.99
  6636                 0.00    428.99     72.99
  6637                 0.00    428.99     61.99
  6639                 0.00    428.49     68.49
  664                  0.00    428.87     80.87
  6640                 0.00    428.41     68.41
  6641                 0.00    428.55     69.87
  6642                 0.00    428.48     72.48
  6643                 0.00    428.75     76.75
  6644                 0.00    428.78     76.78
  6645                 0.00    428.79     78.79
  6646                 0.00    428.87     81.85
  6648                 0.00    428.87     82.86
  6649                 0.00    428.85     89.85
  665                  0.00    428.85     83.85
  666                  0.00    428.94     88.94
  6665                 0.00    428.99     63.85
  6666                 0.00    428.99     61.33
  667                  0.00    428.78     76.78
  668                  0.00    425.19     95.19
  669                  0.00    428.94     83.94
  1                    0.00    428.96     98.96
  10                   0.00    428.75     76.75
  100                118.00    428.45     73.45
  100B               115.00    427.52     69.52
  101                  0.00    428.55     75.55
  103                  0.00    426.55     87.55
  104                155.00    426.39     87.39
  105                  0.00    428.55     73.55
  106                 52.00    428.48     73.48
  107                  0.00    425.27     86.27
  108                  0.00    425.27     86.71
  109                  0.00    425.27     88.27
  11B                  0.00    428.84     85.84
  110                  0.00    425.24     79.24
  111                  0.00    425.22     86.44
  112                  0.00    425.23     83.23
  113                  0.00    425.21    102.21
  114                  0.00    425.14     77.14
  115                  0.00    425.02     79.02
  116                  0.00    425.10     80.10
  117                  0.00    424.88     81.88
  118                 82.00    423.71     84.71
  119                  0.00    423.71    100.90
  12                   0.00    428.80     98.46
  121                  0.00    425.18     76.38
  122                  0.00    425.10     77.20
  123                  0.00    425.10     79.10
  125                  0.00    425.18     74.18
  126                  0.00    425.18     77.18
  127                  0.00    425.18     81.85
  128                  0.00    425.19     63.19
  129                  0.00    425.19     69.19
  130                  0.00    425.19     84.11
  130B                 0.00    425.19     72.19
  132                  0.00    425.19     92.19
  134                  0.00    425.19    104.19
  135                  0.00    425.19    109.19
  137                  0.00    425.19    116.19
  139                  0.00    425.19     65.19
  14                   0.00    428.70     90.70
  140                  0.00    425.19     74.19
  141                  0.00    425.19     73.19
  142                  0.00    425.19     64.19
  143                  0.00    425.19     84.22
  144                  0.00    425.19     66.19
  146                  0.00    424.75     78.75
  147                  0.00    424.43    103.43
  148                  0.00    424.71     91.71
  149                 57.00    387.37     74.16
  15                   0.00    428.73     93.73
  150                  0.00    387.03     78.96
  151                 93.00    385.83     80.59
  152                 69.00    383.89     73.87
  153                  0.00    384.55     74.55
  154                  0.00    425.08    100.08
  157                  0.00    425.08    122.08
  158A                 0.00    425.08    104.08
  158B                 0.00    425.08    104.08
  16B                  0.00    428.73     94.73
  160                  0.00    428.99     61.99
  162                  0.00    428.99     60.99
  163                  0.00    428.99     54.99
  164                  0.00    428.99     69.33
  165                  0.00    428.99     67.69
  166                  0.00    428.99     67.98
  167                  0.00    428.99     58.35
  169                  0.00    428.99     62.49
  17A                  0.00    428.73     93.73
  170                  0.00    428.99     69.99
  17B                  0.00    428.73     93.73
  171                  0.00    428.99     76.99
  172                  0.00    428.99     88.99
  18B                  0.00    428.73    103.73
  19                   0.00    428.98     70.98
  2                    0.00    428.94    102.94
  20                   0.00    428.99     64.99
  2002                 0.00    428.94     78.94
  2003                 0.00    428.94     78.94
  21                   0.00    425.29     63.69
  22                   0.00    425.29     63.69
  222                  0.00    425.27     75.27
  24                   0.00    425.27     81.27
  25                   0.00    425.26     80.26
  26                   0.00    425.24     77.24
  27                   0.00    425.24     75.24
  28                   0.00    425.23     75.23
  29                   0.00    425.19     69.19
  3                    0.00    428.92     88.57
  30                   0.00    425.19     64.19
  3002                 0.00    428.99     42.99
  3004                 0.00    428.99     42.99
  3005                 0.00    428.99     42.99
  3008                 0.00    428.99     43.99
  3012                 0.00    428.99     58.26
  3013                 0.00    428.99     64.06
  3016                 0.00    428.99     63.99
  3017                 0.00    428.99     46.99
  3018                 0.00    428.99     51.99
  3019                 0.00    428.99     59.60
  3020                 0.00    428.99     60.88
  3024                 0.00    428.99     64.05
  31                   0.00    425.12     67.33
  3152                 0.00    428.99     62.79
  32                   0.00    425.15     67.15
  34                   0.00    425.08     74.06
  35                   0.00    425.08     88.08
  36                   0.00    425.08     97.08
  39                   0.00    425.08    112.08
  41                   0.00    425.08    118.08
  46                   0.00    428.99     52.99
  47                   0.00    428.99     70.81
  48                   0.00    428.99     84.99
  49                   0.00    428.99     76.99
  5                    0.00    428.90     81.90
  52                   0.00    428.99     77.99
  53                   0.00    428.98     72.98
  54                   0.00    428.97     83.97
  55                   0.00    428.96     98.96
  56                   0.00    428.96     94.96
  58                   0.00    428.96     95.96
  59                   0.00    428.96     99.96
  6                    0.00    428.78     76.78
  60                   0.00    428.92     83.92
  61                   0.00    428.92     89.92
  62                   0.00    428.66     74.66
  64                   0.00    428.94     97.94
  65                   0.00    428.94     88.94
  66                   0.00    428.94     89.94
  67                   0.00    428.94     96.94
  68                   0.00    428.94     89.94
  69                   0.00    428.94     77.94
  7                    0.00    428.88     75.88
  70                   0.00    428.94     88.94
  71                   0.00    428.94     91.94
  72                   0.00    428.66     72.66
  73                   0.00    428.75     73.75
  77                 131.00    424.42     68.42
  78                   0.00    428.66     88.52
  79                   0.00    428.87     75.87
  8                    0.00    428.79     78.79
  80                   0.00    428.87     79.87
  81                   0.00    428.87     69.87
  82                   0.00    428.87     70.87
  85                   0.00    428.94     89.94
  86                   0.00    428.94     91.94
  87                   0.00    428.69     68.69
  88                   0.00    428.66     75.66
  89                   0.00    428.60     61.60
  90                   0.00    428.48     72.48
  91                   0.00    428.49     56.49
  92                   0.00    428.41     68.41
  91B                  0.00    428.41     68.41
  94                   0.00    428.85     89.85
  95                   0.00    428.85     85.85
  97                   0.00    428.85     97.85
  99                   0.00    428.60     78.60
  74                   0.00    428.74     70.03
  1074                 0.00    428.74     70.74
  11A                  0.00    428.85     85.85
  1011                 0.00    428.85     85.85
  4                    0.00    423.59    111.59
  9                    0.00    425.08    115.08
  0                 -571.00    429.00      0.00  Reservoir
  balsa             -301.00    425.29      0.00  Reservoir
   
   
  Link Results:
  ----------------------------------------------
                       Flow  Velocity  Headloss
  Link                 m3/h       m/s    /1000m
  ----------------------------------------------
  TU1                 -0.00      0.00      0.00
  TU10                 0.00      0.00      0.00
  TU100                0.00      0.00      0.00
  TU101                0.00      0.00      0.00
  TU102                0.00      0.00      0.00
  TU103                0.00      0.00      0.00
  TU104                0.00      0.00      0.00
  TU105              571.00      0.25      0.05
  TU106              571.00      0.25      0.05
  TU107                0.00      0.00      0.00
  TU108              571.00      0.25      0.05
  TU109              571.00      0.25      0.05
  TU11                52.00      0.24      0.21
  TU110              571.00      0.25      0.05
  TU111                0.00      0.00      0.00
  TU112               -0.00      0.00      0.00
  TU113                0.00      0.00      0.00
  TU114                0.00      0.00      0.00
  TU115              571.00      0.20      0.03
  TU116              571.00      0.20      0.03
  TU117               -0.00      0.00      0.00
  TU118                0.00      0.00      0.00
  TU119              571.00      0.20      0.03
  TU12               155.00      1.77     13.57
  TU120              571.00      0.20      0.03
  TU121                0.00      0.00      0.00
  TU122                0.00      0.00      0.00
  TU123               -0.00      0.00      0.00
  TU124                0.00      0.00      0.00
  TU125               -0.00      0.00      0.00
  TU126               -0.00      0.00      0.00
  TU127               -0.00      0.00      0.00
  TU128                0.00      0.00      0.00
  TU129                0.00      0.00      0.00
  TU13               155.00      1.13      4.58
  TU130               -0.00      0.00      0.00
  TU131               -0.00      0.00      0.00
  TU132                0.00      0.00      0.00
  TU133               -0.00      0.00      0.00
  TU134               -0.00      0.00      0.00
  TU135               -0.00      0.00      0.00
  TU136                0.00      0.00      0.00
  TU137                0.00      0.00      0.00
  TU138                0.00      0.00      0.00
  TU139                0.00      0.00      0.00
  TU14               207.00      0.46      0.43
  TU140                0.00      0.00      0.00
  TU141                0.00      0.00      0.00
  TU142              131.00      0.35      0.30
  TU143               -0.00      0.00      0.00
  TU144              115.00      1.24      6.84
  TU145               -0.00      0.00      0.00
  TU146              115.00      0.50      0.76
  TU147              115.00      0.31      0.24
  TU148               -0.00      0.00      0.00
  TU149              118.00      0.82      2.44
  TU15                -0.00      0.00      0.00
  TU150              118.00      0.82      2.44
  TU151              233.00      0.33      0.18
  TU152                0.00      0.00      0.00
  TU15301            233.00      0.33      0.18
  TU15302            233.00      0.33      0.18
  TU1074               0.00      0.00      0.00
  TU154              233.00      0.23      0.08
  TU155                0.00      0.00      0.00
  TU156              233.00      0.23      0.08
  TU157              364.00      0.36      0.17
  TU158                0.00      0.00      0.00
  TU159              364.00      0.36      0.17
  TU16               571.00      0.10      0.01
  TU160                0.00      0.00      0.00
  TU161              364.00      0.36      0.17
  TU162              207.00      0.15      0.03
  TU163              207.00      0.15      0.03
  TU164              207.00      0.15      0.02
  TU166               -0.00      0.00      0.00
  TU167               -0.00      0.00      0.00
  TU168                0.00      0.00      0.00
  TU169                0.00      0.00      0.00
  TU17                -0.00      0.00      0.00
  TU170                0.00      0.00      0.00
  TU171              207.00      0.15      0.03
  TU17201             -0.00      0.00      0.00
  TU17202              0.00      0.00      0.00
  TU1011A             -0.00      0.00      0.00
  TU173               -0.00      0.00      0.00
  TU174               -0.00      0.00      0.00
  TU175               -0.00      0.00      0.00
  TU176              207.00      0.20      0.06
  TU177              207.00      0.20      0.06
  TU178              207.00      0.20      0.06
  TU179                0.00      0.00      0.00
  TU18                 0.00      0.00      0.00
  TU180                0.00      0.00      0.00
  TU181                0.00      0.00      0.00
  TU182                0.00      0.00      0.00
  TU183                0.00      0.00      0.00
  TU184                0.00      0.00      0.00
  TU185               82.00      0.18      0.08
  TU186               -0.00      0.00      0.00
  TU187               -0.00      0.00      0.00
  TU188              301.00      0.22      0.06
  TU189              301.00      0.22      0.06
  TU19                -0.00      0.00      0.00
  TU190               69.00      0.91      4.35
  TU191                0.00      0.00      0.00
  TU192                0.00      0.00      0.00
  TU193                0.00      0.00      0.00
  TU194               -0.00      0.00      0.00
  TU195                0.00      0.00      0.00
  TU196                0.00      0.00      0.00
  TU197               -0.00      0.00      0.00
  TU198                0.00      0.00      0.00
  TU199                0.00      0.00      0.00
  TU2                  0.00      0.00      0.00
  TU20                -0.00      0.00      0.00
  TU200               -0.00      0.00      0.00
  TU201                0.00      0.00      0.00
  TU203                0.00      0.00      0.00
  TU204                0.00      0.00      0.00
  TU205                0.00      0.00      0.00
  TU21               162.00      1.36      7.00
  TU22               301.00      0.17      0.03
  TU23               301.00      0.17      0.03
  TU24               301.00      0.17      0.03
  TU25               301.00      0.17      0.12
  TU26               219.00      0.22      0.07
  TU27               219.00      0.22      0.07
  TU28               219.00      0.22      0.07
  TU29               219.00      0.22      0.07
  TU3                  0.00      0.00      0.00
  TU30                 0.00      0.00      0.00
  TU31                82.00      0.94      4.23
  TU32                 0.00      0.00      0.00
  TU33                82.00      0.38      0.46
  TU34                82.00      0.38      0.46
  TU35                 0.00      0.00      0.00
  TU36                 0.00      0.00      0.00
  TU37                82.00      0.23      0.15
  TU38                82.00      0.23      0.15
  TU39                -0.00      0.00      0.00
  TU4                233.00      0.33      0.18
  TU40                -0.00      0.00      0.00
  TU41                82.00      0.18      0.08
  TU42                 0.00      0.00      0.00
  TU43                82.00      0.12      0.03
  TU44                82.00      0.12      0.03
  TU45                82.00      0.12      0.03
  TU46                82.00      0.12      0.03
  TU47                -0.00      0.00      0.00
  TU48                 0.00      0.00      0.00
  TU49                 0.00      0.00      0.00
  TU5                233.00      0.33      0.18
  TU50                 0.00      0.00      0.00
  TU52                 0.00      0.00      0.00
  TU53                 0.00      0.00      0.00
  TU54                 0.00      0.00      0.00
  TU55                 0.00      0.00      0.00
  TU56                -0.00      0.00      0.00
  TU57                 0.00      0.00      0.00
  TU58                 0.00      0.00      0.00
  TU59                 0.00      0.00      0.00
  TU6                 82.00      0.12      0.03
  TU61                 0.00      0.00      0.00
  TU62               162.00      0.86      2.29
  TU63                57.00      1.17      9.12
  TU65                 0.00      0.00      0.00
  TU66               219.00      0.72      1.26
  TU67               219.00      0.62      0.87
  TU68               219.00      0.62      0.87
  TU69               219.00      0.31      0.16
  TU7                131.00      2.20     25.66
  TU70               219.00      0.31      0.16
  TU71               219.00      0.31      0.16
  TU72                 0.00      0.00      0.00
  TU73                 0.00      0.00      0.00
  TU74                 0.00      0.00      0.00
  TU75                 0.00      0.00      0.00
  TU76                 0.00      0.00      0.00
  TU77                 0.00      0.00      0.00
  TU78                 0.00      0.00      0.00
  TU79                 0.00      0.00      0.00
  TU8                  0.00      0.00      0.00
  TU80                 0.00      0.00      0.00
  TU81                 0.00      0.00      0.00
  TU82                 0.00      0.00      0.00
  TU83                 0.00      0.00      0.00
  TU84                 0.00      0.00      0.00
  TU85                 0.00      0.00      0.00
  TU86                 0.00      0.00      0.00
  TU87                 0.00      0.00      0.00
  TU88                 0.00      0.00      0.00
  TU89                 0.00      0.00      0.00
  TU9                 52.00      0.87      4.72
  TU90                 0.00      0.00      0.00
  TU91                -0.00      0.00      0.00
  TU92                -0.00      0.00      0.00
  TU93                 0.00      0.00      0.00
  TU94                 0.00      0.00      0.00
  TU95                 0.00      0.00      0.00
  TU96                 0.00      0.00      0.00
  TU97                 0.00      0.00      0.00
  TU98                 0.00      0.00      0.00
  TU99                 0.00      0.00      0.00
  TU4000               0.00      0.00      0.00
  TU60                69.00      1.42     12.94
  TU64               219.00      1.16      3.97
  TU51                 0.00      0.00      0.00
  2                  219.00      4.51     36.00
  3                    0.00      0.00      0.00
   
  Analysis ended Fri Sep  8 13:08:29 2023
