  Page 1                                    Fri Sep  8 13:17:17 2023

  ******************************************************************
  *                           E P A N E T                          *
  *                   Hydraulic and Water Quality                  *
  *                   Analysis for Pipe Networks                   *
  *                         Version 2.2                            *
  ******************************************************************
  
  Analysis begun Fri Sep  8 13:17:17 2023

   
  Node Results:
  ----------------------------------------------
                     Demand      Head  Pressure
  Node                 m3/h         m         m
  ----------------------------------------------
  3661                 0.00    428.65     50.51
  482                  0.00    427.06     81.06
  661                  0.00    420.12     90.12
  6610                 0.00    423.61     63.61
  6611                 0.00    421.45     86.45
  6612                 0.00    424.20     61.83
  6613                 0.00    420.65     65.65
  6615                 0.00    421.25     82.25
  6616                 0.00    420.79     59.79
  6617                 0.00    419.39     76.39
  6618                 0.00    421.59     73.59
  662                  0.00    427.00     99.00
  6620                 0.00    418.13    110.13
  6621                 0.00    419.60     91.60
  6622                 0.00    419.94     82.94
  6623                 0.00    420.28     69.28
  6624                 0.00    420.38     68.38
  6625                 0.00    383.85     71.85
  6626                 0.00    419.95     98.95
  6627                 0.00    419.76     98.76
  6628                 0.00    425.08     86.08
  6629                 0.00    426.31     86.31
  663                  0.00    425.82     84.82
  6630                 0.00    426.47     86.67
  6632                 0.00    426.63     86.63
  6633                 0.00    428.27     65.63
  6634                 0.00    428.39     57.39
  6635                 0.00    428.19     76.19
  6636                 0.00    428.19     72.19
  6637                 0.00    427.93     60.93
  6639                 0.00    423.73     63.73
  664                  0.00    424.89     76.89
  6640                 0.00    423.71     63.71
  6641                 0.00    423.98     65.30
  6642                 0.00    423.98     67.98
  6643                 0.00    424.65     72.65
  6644                 0.00    424.91     72.91
  6645                 0.00    425.02     75.02
  6646                 0.00    420.75     73.73
  6648                 0.00    421.03     75.02
  6649                 0.00    422.70     83.70
  665                  0.00    424.38     79.38
  666                  0.00    426.47     86.47
  6665                 0.00    427.39     62.25
  6666                 0.00    427.64     59.99
  667                  0.00    424.88     72.88
  668                  0.00    420.12     90.12
  669                  0.00    426.29     81.29
  1                   75.00    427.65     97.65
  10                  65.00    424.27     72.27
  100                  0.00    423.98     68.98
  100B                 0.00    423.71     65.71
  101                108.00    420.30     67.30
  103                 55.00    417.91     78.91
  104                166.00    417.73     78.73
  105                 70.00    420.63     65.63
  106                  0.00    420.65     65.65
  107                 83.00    420.90     81.90
  108                 56.00    420.47     81.91
  109                  0.00    421.07     84.07
  11B                150.00    424.16     81.16
  110                 64.00    421.54     75.54
  111                  0.00    421.35     82.57
  112                  0.00    421.45     79.45
  113                  0.00    421.10     98.10
  114                  0.00    420.42     72.42
  115                  0.00    419.89     73.89
  116                  0.00    420.15     75.15
  117                 82.00    419.28     76.28
  118                 84.00    418.15     79.15
  119                  0.00    418.15     95.34
  12                   0.00    423.32     92.98
  121                 62.00    420.71     71.91
  122                 66.00    416.37     68.47
  123                  0.00    419.62     73.62
  125                  0.00    420.68     69.68
  126                 65.00    420.57     72.57
  127                  0.00    420.57     77.24
  128                 57.00    420.76     58.76
  129                  0.00    420.35     64.35
  130                131.00    420.15     79.07
  130B                66.00    420.24     67.24
  132                  0.00    418.29     85.29
  134                 60.00    419.47     98.47
  135                  0.00    419.76    103.76
  137                  0.00    419.76    110.76
  139                  0.00    420.12     60.12
  14                  91.00    422.03     84.03
  140                  0.00    420.12     69.12
  141                  0.00    420.12     68.12
  142                  0.00    420.12     59.12
  143                 60.00    415.61     74.64
  144                 86.00    420.54     61.53
  146                  0.00    420.11     74.11
  147                 69.00    419.61     98.61
  148                 61.00    420.07     87.07
  149                  0.00    383.85     70.64
  15                 206.00    420.87     85.87
  150                  0.00    383.73     75.66
  151                  0.00    383.47     78.23
  152                 69.00    381.53     71.51
  153                  0.00    382.19     72.19
  154                  0.00    419.45     94.45
  157                 58.00    416.95    113.95
  158A                73.00    406.77     85.77
  158B                73.00    406.74     85.74
  16B                132.00    422.21     88.21
  160                 50.00    427.90     60.90
  162                  0.00    427.78     59.78
  163                 97.00    427.30     53.30
  164                 60.00    427.51     67.85
  165                 63.00    427.39     66.09
  166                  0.00    427.39     66.38
  167                  0.00    427.39     56.75
  169                 55.00    427.38     60.88
  17A                  0.00    421.32     86.32
  170                102.00    428.05     69.05
  17B                180.00    421.19     86.19
  171                  0.00    428.19     76.19
  172                  0.00    428.19     88.19
  18B                  0.00    421.19     96.19
  19                   0.00    428.27     70.27
  2                    0.00    427.14    101.14
  20                  86.00    428.65     64.65
  2002                 0.00    426.29     76.29
  2003                 0.00    426.29     76.29
  21                   0.00    422.48     60.88
  22                   0.00    422.47     60.87
  222                 69.00    422.21     72.21
  24                   0.00    422.06     78.06
  25                   0.00    421.86     76.86
  26                   0.00    421.59     73.59
  27                   0.00    421.67     71.67
  28                  54.00    421.44     71.44
  29                  50.00    420.88     64.88
  3                    0.00    426.48     86.13
  30                   0.00    420.81     59.81
  3002                 0.00    428.65     42.65
  3004                 0.00    428.65     42.65
  3005                 0.00    428.65     42.65
  3008                 0.00    428.65     43.65
  3012                 0.00    428.65     57.92
  3013                 0.00    428.65     63.72
  3016                 0.00    428.65     63.65
  3017               128.00    428.66     46.66
  3018                51.00    428.20     51.20
  3019                 0.00    428.65     59.26
  3020                 0.00    428.65     60.54
  3024                 0.00    428.65     63.71
  31                   0.00    420.53     62.74
  3152                 0.00    428.65     62.45
  32                   0.00    420.64     62.64
  34                  55.00    420.17     69.15
  35                   0.00    419.94     82.94
  36                   0.00    419.60     91.60
  39                   0.00    418.96    105.96
  41                   0.00    417.87    110.87
  46                   0.00    428.34     52.34
  47                   0.00    427.47     69.29
  48                   0.00    426.69     82.69
  49                  84.00    423.89     71.89
  5                    0.00    426.14     79.14
  52                  74.00    423.86     72.86
  53                 124.00    425.99     69.99
  54                   0.00    428.04     83.04
  55                   0.00    427.59     97.59
  56                  58.00    427.56     93.56
  58                   0.00    427.56     94.56
  59                   0.00    427.56     98.56
  6                   61.00    424.69     72.69
  60                  48.00    420.77     75.77
  61                  82.00    419.59     80.59
  62                   0.00    424.59     70.59
  64                  57.00    426.82     95.82
  65                  72.00    426.37     86.37
  66                  86.00    426.63     87.63
  67                 112.00    426.50     94.50
  68                   0.00    426.47     87.47
  69                   0.00    426.47     75.47
  7                   62.00    425.28     72.28
  70                   0.00    426.21     86.21
  71                  91.00    424.33     87.33
  72                  96.00    424.59     68.59
  73                 160.00    424.60     69.60
  77                 116.00    421.21     65.21
  78                   0.00    424.59     84.45
  79                  48.00    425.27     72.27
  8                   61.00    424.81     74.81
  80                   0.00    424.77     75.77
  81                  76.00    418.99     59.99
  82                 129.00    419.99     61.99
  85                  55.00    424.84     85.84
  86                   0.00    425.08     88.08
  87                 114.00    424.29     64.29
  88                  46.00    421.24     68.24
  89                  77.00    424.04     57.04
  90                   0.00    423.98     67.98
  91                 191.00    423.26     51.26
  92                  60.00    423.56     63.56
  91B                  0.00    423.61     63.61
  94                  76.00    422.10     83.10
  95                   0.00    420.33     77.33
  97                 125.00    413.53     82.53
  99                  71.00    423.33     73.33
  74                  79.00    422.26     63.55
  1074                 0.00    424.56     66.56
  11A                145.00    418.47     75.47
  1011                 0.00    418.71     75.71
  4                    0.00    419.85    107.85
  9                    0.00    418.13    108.13
  0                -4726.00    429.00      0.00  Reservoir
  balsa            -1653.00    422.48      0.00  Reservoir
   
   
  Link Results:
  ----------------------------------------------
                       Flow  Velocity  Headloss
  Link                 m3/h       m/s    /1000m
  ----------------------------------------------
  TU1                 60.00      0.65      2.15
  TU10                70.00      0.76      2.77
  TU100              258.00      0.57      0.64
  TU101              344.00      0.49      0.37
  TU102               72.00      1.28      9.78
  TU103              416.00      0.59      0.52
  TU104              473.00      0.67      0.66
  TU105             3016.00      1.32      1.14
  TU106             3016.00      1.32      1.14
  TU107                0.00      0.00      0.00
  TU108             3146.00      1.37      1.23
  TU109             3619.00      1.58      1.60
  TU11               178.00      0.81      1.89
  TU110             3619.00      1.58      1.60
  TU111               -0.00      0.00      0.00
  TU112               -0.00      0.00      0.00
  TU113               58.00      0.31      0.36
  TU114               58.00      0.31      0.36
  TU115             3752.00      1.33      1.02
  TU116             3752.00      1.33      1.02
  TU117              124.00      1.34      7.85
  TU118                0.00      0.00      0.00
  TU119             3752.00      1.33      1.02
  TU12               166.00      1.90     15.40
  TU120             3876.00      1.37      1.09
  TU121                0.00      0.00      0.00
  TU122                0.00      0.00      0.00
  TU123               -0.00      0.00      0.00
  TU124               74.00      0.84      3.51
  TU125              158.00      1.15      4.74
  TU126              158.00      0.72      1.52
  TU127              158.00      0.72      1.52
  TU128                0.00      0.00      0.00
  TU129                0.00      0.00      0.00
  TU13               221.00      1.61      8.78
  TU130               63.00      0.27      0.25
  TU131               63.00      0.27      0.26
  TU132               55.00      0.24      0.20
  TU133              118.00      0.51      0.80
  TU134               -0.00      0.00      0.00
  TU135              275.00      0.61      0.72
  TU136              325.00      0.72      0.97
  TU137              483.00      0.68      0.68
  TU138              585.00      0.83      0.97
  TU139              585.00      0.57      0.40
  TU14               490.00      1.08      2.07
  TU140              636.00      0.62      0.47
  TU141                0.00      0.00      0.00
  TU142              212.00      0.57      0.73
  TU143              191.00      0.83      1.91
  TU144               -0.00      0.00      0.00
  TU145               60.00      0.42      0.72
  TU146               60.00      0.26      0.24
  TU147              251.00      0.68      0.99
  TU148               -0.00      0.00      0.00
  TU149               -0.00      0.00      0.00
  TU15                -0.00      0.00      0.00
  TU150               -0.00      0.00      0.00
  TU151              251.00      0.36      0.21
  TU152               71.00      0.81      3.25
  TU15301            638.00      0.90      1.13
  TU15302            559.00      0.79      0.89
  TU1074              79.00      1.04      5.56
  TU154              798.00      0.78      0.71
  TU155               65.00      1.09      7.08
  TU156              863.00      0.85      0.82
  TU157             1075.00      1.06      1.22
  TU158               61.00      1.09      7.22
  TU159             1136.00      1.12      1.35
  TU16              4726.00      0.85      0.30
  TU160               61.00      1.09      7.22
  TU161             1197.00      1.18      1.49
  TU162             1819.00      1.31      1.52
  TU163             1709.00      1.23      1.36
  TU164             1757.00      1.27      1.43
  TU166               76.00      1.57     15.45
  TU167              129.00      1.70     13.66
  TU168              129.00      1.70     13.66
  TU169              205.00      1.73     10.79
  TU17                56.00      1.00      6.18
  TU170              205.00      0.94      2.45
  TU171             1504.00      1.09      1.07
  TU17201            270.00      3.55     53.83
  TU17202            125.00      1.64     12.89
  TU1011A            145.00      1.91     16.95
  TU173              270.00      1.97     12.72
  TU174               76.00      1.35     10.79
  TU175              346.00      1.58      6.41
  TU176             1008.00      0.99      1.09
  TU177             1158.00      1.14      1.40
  TU178             1008.00      0.99      1.09
  TU179              386.00      1.10      2.45
  TU18                56.00      0.64      2.11
  TU180              180.00      0.51      0.61
  TU181                0.00      0.00      0.00
  TU182              180.00      0.82      1.93
  TU183              130.00      1.48      9.82
  TU184                0.00      0.00      0.00
  TU185              359.00      0.79      1.17
  TU186              178.00      0.48      0.53
  TU187              275.00      0.61      0.72
  TU188             1445.00      1.04      1.00
  TU189             1445.00      1.04      1.00
  TU19                83.00      1.48     12.69
  TU190               69.00      0.91      4.35
  TU191               82.00      1.46     12.41
  TU192                0.00      0.00      0.00
  TU193                0.00      0.00      0.00
  TU194               -0.00      0.00      0.00
  TU195                0.00      0.00      0.00
  TU196                0.00      0.00      0.00
  TU197               -0.00      0.00      0.00
  TU198                0.00      0.00      0.00
  TU199                0.00      0.00      0.00
  TU2                206.00      2.35     22.97
  TU20               139.00      1.02      3.75
  TU200               -0.00      0.00      0.00
  TU201                0.00      0.00      0.00
  TU203               51.00      0.86      4.55
  TU204               86.00      0.04      0.00
  TU205               86.00      0.04      0.00
  TU21                69.00      0.58      1.48
  TU22              1584.00      0.88      0.62
  TU23              1653.00      0.91      0.67
  TU24              1653.00      0.91      0.67
  TU25              1653.00      0.91      0.62
  TU26               918.00      0.90      0.91
  TU27               918.00      0.90      0.91
  TU28               968.00      0.95      1.01
  TU29              1022.00      1.00      1.11
  TU3                 46.00      0.77      3.78
  TU30                 0.00      0.00      0.00
  TU31                84.00      0.96      4.41
  TU32                82.00      0.94      4.22
  TU33               166.00      0.76      1.67
  TU34               166.00      0.76      1.67
  TU35                66.00      1.17      8.34
  TU36                66.00      0.75      2.85
  TU37               232.00      0.66      0.97
  TU38               232.00      0.66      0.97
  TU39                -0.00      0.00      0.00
  TU4                399.00      0.56      0.48
  TU40                65.00      0.47      0.94
  TU41               297.00      0.66      0.83
  TU42                97.00      0.67      1.71
  TU43               359.00      0.51      0.40
  TU44               359.00      0.51      0.40
  TU45               423.00      0.60      0.54
  TU46               423.00      0.60      0.54
  TU47                -0.00      0.00      0.00
  TU48               146.00      1.92     17.16
  TU49               146.00      1.23      5.78
  TU5                445.00      0.63      0.59
  TU50                58.00      1.20      9.42
  TU52               204.00      0.67      1.11
  TU53               204.00      0.67      1.11
  TU54                 0.00      0.00      0.00
  TU55               204.00      0.67      1.11
  TU56                 0.00      0.00      0.00
  TU57               204.00      0.58      0.76
  TU58                55.00      0.98      5.98
  TU59               259.00      0.74      1.18
  TU6                359.00      0.51      0.40
  TU61                 0.00      0.00      0.00
  TU62                69.00      0.37      0.49
  TU63                 0.00      0.00      0.00
  TU65                69.00      1.42     12.94
  TU66               138.00      0.46      0.54
  TU67               199.00      0.56      0.73
  TU68               199.00      0.56      0.73
  TU69               458.00      0.65      0.62
  TU7                116.00      1.95     20.49
  TU70               458.00      0.65      0.62
  TU71               458.00      0.65      0.62
  TU72               120.00      0.27      0.16
  TU73               251.00      0.55      0.61
  TU74               317.00      0.70      0.93
  TU75               317.00      0.70      0.93
  TU76               403.00      0.89      1.44
  TU77               460.00      1.02      1.84
  TU78                 0.00      0.00      0.00
  TU79                 0.00      0.00      0.00
  TU8                108.00      1.17      6.10
  TU80                60.00      1.24     10.02
  TU81                60.00      0.50      1.15
  TU82                60.00      1.07      7.01
  TU83                60.00      0.79      3.37
  TU84                 0.00      0.00      0.00
  TU85                 0.00      0.00      0.00
  TU86                 0.00      0.00      0.00
  TU87                 0.00      0.00      0.00
  TU88                60.00      0.13      0.05
  TU89                55.00      0.98      5.98
  TU9                  0.00      0.00      0.00
  TU90                 0.00      0.00      0.00
  TU91                55.00      0.63      2.05
  TU92                55.00      0.25      0.23
  TU93                55.00      0.16      0.07
  TU94                91.00      1.04      5.11
  TU95               146.00      0.41      0.42
  TU96                 0.00      0.00      0.00
  TU97                 0.00      0.00      0.00
  TU98                 0.00      0.00      0.00
  TU99               146.00      0.32      0.23
  TU4000              73.00      0.96      4.81
  TU60                69.00      1.42     12.94
  TU64                69.00      0.37      0.49
  TU51               204.00      1.08      3.49
  2                   69.00      1.42     36.00  PBV
  3                  204.00      4.20      0.00  PBV
   
  Analysis ended Fri Sep  8 13:17:17 2023
