  Page 1                                    Fri Sep  8 13:25:20 2023

  ******************************************************************
  *                           E P A N E T                          *
  *                   Hydraulic and Water Quality                  *
  *                   Analysis for Pipe Networks                   *
  *                         Version 2.2                            *
  ******************************************************************
  
  Analysis begun Fri Sep  8 13:25:20 2023

   
  Node Results:
  ----------------------------------------------
                     Demand      Head  Pressure
  Node                 m3/h         m         m
  ----------------------------------------------
  3661                 0.00    428.91     50.77
  482                  0.00    428.60     82.60
  661                  0.00    423.14     93.14
  6610                 0.00    426.56     66.56
  6611                 0.00    427.92     92.92
  6612                 0.00    427.12     64.75
  6613                 0.00    426.84     71.84
  6615                 0.00    423.48     84.48
  6616                 0.00    423.28     62.28
  6617                 0.00    423.18     80.18
  6618                 0.00    423.42     75.42
  662                  0.00    428.45    100.45
  6620                 0.00    421.78    113.78
  6621                 0.00    422.70     94.70
  6622                 0.00    422.91     85.91
  6623                 0.00    423.13     72.13
  6624                 0.00    423.17     71.17
  6625                 0.00    387.17     75.17
  6626                 0.00    423.17    102.17
  6627                 0.00    422.77    101.77
  6628                 0.00    427.90     88.90
  6629                 0.00    427.90     87.90
  663                  0.00    428.18     87.18
  6630                 0.00    427.62     87.82
  6632                 0.00    428.12     88.12
  6633                 0.00    428.81     66.17
  6634                 0.00    428.84     57.84
  6635                 0.00    428.73     76.73
  6636                 0.00    428.73     72.73
  6637                 0.00    428.60     61.60
  6639                 0.00    426.69     66.69
  664                  0.00    428.08     80.08
  6640                 0.00    426.66     66.66
  6641                 0.00    426.90     68.22
  6642                 0.00    426.90     70.90
  6643                 0.00    427.51     75.51
  6644                 0.00    427.71     75.71
  6645                 0.00    427.77     77.77
  6646                 0.00    426.13     79.11
  6648                 0.00    426.40     80.39
  6649                 0.00    427.66     88.66
  665                  0.00    428.04     83.04
  666                  0.00    427.96     87.96
  6665                 0.00    427.56     62.42
  6666                 0.00    428.25     60.59
  667                  0.00    427.69     75.69
  668                  0.00    423.13     93.13
  669                  0.00    427.90     82.90
  1                   83.00    428.63     98.63
  10                   0.00    427.51     75.51
  100                  0.00    426.90     71.90
  100B                 0.00    426.66     68.66
  101                 96.00    426.56     73.56
  103                 54.00    427.57     88.57
  104                  0.00    427.57     88.57
  105                  0.00    426.84     71.84
  106                 57.00    426.75     71.75
  107                  0.00    423.48     84.48
  108                  0.00    423.48     84.92
  109                  0.00    423.48     86.48
  11B                  0.00    428.03     85.03
  110                  0.00    423.42     77.42
  111                  0.00    423.39     84.61
  112                  0.00    423.40     81.40
  113                  0.00    423.36    100.36
  114                 55.00    423.24     75.24
  115                 57.00    423.18     77.18
  116                  0.00    423.22     78.22
  117                  0.00    423.18     80.18
  118                  0.00    423.18     84.18
  119                  0.00    423.18    100.37
  12                   0.00    427.98     97.64
  121                  0.00    423.31     74.51
  122                  0.00    423.22     75.32
  123                  0.00    423.22     77.22
  125                  0.00    423.31     72.31
  126                  0.00    423.31     75.31
  127                  0.00    423.31     79.98
  128                  0.00    423.27     61.28
  129                  0.00    423.21     67.21
  130                  0.00    423.17     82.09
  130B                 0.00    423.20     70.20
  132                  0.00    421.14     88.14
  134                 61.00    422.47    101.47
  135                  0.00    422.77    106.77
  137                  0.00    422.77    113.77
  139                  0.00    423.13     63.13
  14                   0.00    427.88     89.88
  140                  0.00    423.13     72.13
  141                  0.00    423.13     71.13
  142                  0.00    423.13     62.13
  143                 63.00    418.21     77.24
  144                  0.00    423.25     64.25
  146                  0.00    423.17     77.17
  147                  0.00    423.17    102.17
  148                  0.00    423.17     90.17
  149                  0.00    387.17     73.96
  15                   0.00    427.92     92.92
  150                  0.00    387.17     79.10
  151                  0.00    387.17     81.93
  152                  0.00    387.17     77.15
  153                  0.00    387.17     77.17
  154                  0.00    422.61     97.61
  157                  0.00    421.78    118.78
  158A                79.00    408.63     87.63
  158B                79.00    408.60     87.60
  16B                  0.00    427.92     93.92
  160                 59.00    428.56     61.56
  162                  0.00    428.41     60.41
  163                 91.00    427.94     53.94
  164                  0.00    428.05     68.39
  165                 63.00    427.56     66.26
  166                 89.00    427.56     66.55
  167                  0.00    427.56     56.92
  169                 65.00    427.82     61.32
  17A                  0.00    427.92     92.92
  170                  0.00    428.67     69.67
  17B                  0.00    427.92     92.92
  171                  0.00    428.73     76.73
  172                  0.00    428.73     88.73
  18B                  0.00    427.92    102.92
  19                   0.00    428.81     70.81
  2                    0.00    428.49    102.49
  20                   0.00    428.91     64.91
  2002                 0.00    427.90     77.90
  2003                 0.00    427.90     77.90
  21                   0.00    423.53     61.93
  22                   0.00    423.52     61.92
  222                  0.00    423.50     73.50
  24                   0.00    423.48     79.48
  25                   0.00    423.45     78.45
  26                   0.00    423.42     75.42
  27                   0.00    423.43     73.43
  28                   0.00    423.39     73.39
  29                   0.00    423.29     67.29
  3                    0.00    428.34     87.99
  30                   0.00    423.28     62.28
  3002                 0.00    428.91     42.91
  3004                 0.00    428.91     42.91
  3005                 0.00    428.91     42.91
  3008                 0.00    428.91     43.91
  3012                 0.00    428.91     58.18
  3013                 0.00    428.91     63.98
  3016                 0.00    428.91     63.91
  3017                 0.00    428.91     46.91
  3018                 0.00    428.79     51.79
  3019                 0.00    428.91     59.52
  3020                 0.00    428.91     60.80
  3024                 0.00    428.91     63.97
  31                  89.00    423.19     65.40
  3152                 0.00    428.91     62.71
  32                   0.00    423.23     65.23
  34                   0.00    423.13     72.11
  35                   0.00    422.91     85.91
  36                   0.00    422.70     94.70
  39                   0.00    422.30    109.30
  41                   0.00    421.48    114.48
  46                   0.00    428.79     52.79
  47                   0.00    427.93     69.75
  48                   0.00    428.60     84.60
  49                   0.00    428.60     76.60
  5                    0.00    428.25     81.25
  52                   0.00    428.60     77.60
  53                   0.00    428.84     72.84
  54                   0.00    428.74     83.74
  55                   0.00    428.63     98.63
  56                   0.00    428.63     94.63
  58                   0.00    428.63     95.63
  59                   0.00    428.63     99.63
  6                    0.00    427.71     75.71
  60                   0.00    428.34     83.34
  61                   0.00    428.34     89.34
  62                   0.00    427.69     73.69
  64                   0.00    428.31     97.31
  65                  76.00    427.83     87.83
  66                  87.00    428.11     89.11
  67                 113.00    427.99     95.99
  68                   0.00    427.62     88.62
  69                  54.00    426.95     75.95
  7                   65.00    428.12     75.12
  70                   0.00    427.90     87.90
  71                  88.00    426.03     89.03
  72                   0.00    427.69     71.69
  73                 165.00    427.47     72.47
  77                   0.00    427.69     71.69
  78                   0.00    427.69     87.55
  79                   0.00    428.12     75.12
  8                   69.00    427.51     77.51
  80                   0.00    428.03     79.03
  81                   0.00    426.40     67.40
  82                 130.00    425.35     67.35
  85                   0.00    427.90     88.90
  86                   0.00    427.90     90.90
  87                 118.00    427.19     67.19
  88                   0.00    427.12     74.12
  89                 100.00    426.96     59.96
  90                   0.00    426.90     70.90
  91                 172.00    426.30     54.30
  92                  61.00    426.51     66.51
  91B                  0.00    426.56     66.56
  94                   0.00    427.66     88.66
  95                   0.00    426.81     83.81
  97                   0.00    426.25     95.25
  99                  69.00    426.28     76.28
  74                  80.00    425.07     66.36
  1074                 0.00    427.44     69.44
  11A                154.00    425.98     82.98
  1011                 0.00    426.25     83.25
  4                    0.00    423.17    111.17
  9                    0.00    421.78    111.78
  0                -2258.00    429.00      0.00  Reservoir
  balsa             -483.00    423.53     -0.00  Reservoir
   
   
  Link Results:
  ----------------------------------------------
                       Flow  Velocity  Headloss
  Link                 m3/h       m/s    /1000m
  ----------------------------------------------
  TU1                 61.00      0.67      2.21
  TU10                 0.00      0.00      0.00
  TU100              255.00      0.56      0.63
  TU101              342.00      0.48      0.36
  TU102               76.00      1.35     10.79
  TU103              418.00      0.59      0.52
  TU104              418.00      0.59      0.52
  TU105             1390.00      0.61      0.27
  TU106             1390.00      0.61      0.27
  TU107                0.00      0.00      0.00
  TU108             1390.00      0.61      0.27
  TU109             1808.00      0.79      0.44
  TU11               153.00      0.70      1.44
  TU110             1808.00      0.79      0.44
  TU111                0.00      0.00      0.00
  TU112               -0.00      0.00      0.00
  TU113                0.00      0.00      0.00
  TU114                0.00      0.00      0.00
  TU115             1891.00      0.67      0.29
  TU116             1891.00      0.67      0.29
  TU117                0.00      0.00      0.00
  TU118                0.00      0.00      0.00
  TU119             1891.00      0.67      0.29
  TU12                 0.00      0.00      0.00
  TU120             1891.00      0.67      0.29
  TU121                0.00      0.00      0.00
  TU122                0.00      0.00      0.00
  TU123               -0.00      0.00      0.00
  TU124                0.00      0.00      0.00
  TU125               -0.00      0.00      0.00
  TU126               -0.00      0.00      0.00
  TU127               -0.00      0.00      0.00
  TU128                0.00      0.00      0.00
  TU129                0.00      0.00      0.00
  TU13                54.00      0.39      0.68
  TU130               63.00      0.27      0.25
  TU131              152.00      0.66      1.26
  TU132               65.00      0.28      0.27
  TU133              217.00      0.94      2.41
  TU134               -0.00      0.00      0.00
  TU135              308.00      0.68      0.88
  TU136              367.00      0.81      1.22
  TU137              367.00      0.52      0.41
  TU138              367.00      0.52      0.41
  TU139              367.00      0.36      0.17
  TU14               207.00      0.46      0.43
  TU140              367.00      0.36      0.17
  TU141                0.00      0.00      0.00
  TU142                0.00      0.00      0.00
  TU143              172.00      0.75      1.58
  TU144               -0.00      0.00      0.00
  TU145               61.00      0.42      0.74
  TU146               61.00      0.27      0.24
  TU147              233.00      0.63      0.86
  TU148                0.00      0.00      0.00
  TU149               -0.00      0.00      0.00
  TU15                -0.00      0.00      0.00
  TU150               -0.00      0.00      0.00
  TU151              233.00      0.33      0.18
  TU152               69.00      0.79      3.09
  TU15301            600.00      0.85      1.01
  TU15302            520.00      0.74      0.78
  TU1074              80.00      1.05      5.69
  TU154              765.00      0.75      0.65
  TU155                0.00      0.00      0.00
  TU156              765.00      0.75      0.65
  TU157              765.00      0.75      0.65
  TU158                0.00      0.00      0.00
  TU159              765.00      0.75      0.65
  TU16              2258.00      0.41      0.08
  TU160               69.00      1.23      9.05
  TU161              834.00      0.82      0.77
  TU162              556.00      0.40      0.17
  TU163              491.00      0.35      0.14
  TU164              491.00      0.35      0.14
  TU166               -0.00      0.00      0.00
  TU167              130.00      1.71     13.85
  TU168              130.00      1.71     13.85
  TU169              130.00      1.09      4.67
  TU17                -0.00      0.00      0.00
  TU170              130.00      0.59      1.07
  TU171              361.00      0.26      0.08
  TU17201            154.00      2.03     18.94
  TU17202              0.00      0.00      0.00
  TU1011A            154.00      2.03     18.94
  TU173              154.00      1.13      4.52
  TU174               -0.00      0.00      0.00
  TU175              154.00      0.70      1.45
  TU176              207.00      0.20      0.06
  TU177              207.00      0.20      0.06
  TU178              207.00      0.20      0.06
  TU179                0.00      0.00      0.00
  TU18                 0.00      0.00      0.00
  TU180                0.00      0.00      0.00
  TU181                0.00      0.00      0.00
  TU182                0.00      0.00      0.00
  TU183                0.00      0.00      0.00
  TU184                0.00      0.00      0.00
  TU185              112.00      0.25      0.14
  TU186              217.00      0.59      0.76
  TU187              308.00      0.68      0.88
  TU188              483.00      0.35      0.13
  TU189              483.00      0.35      0.13
  TU19                 0.00      0.00      0.00
  TU190               -0.00      0.00      0.00
  TU191                0.00      0.00      0.00
  TU192                0.00      0.00      0.00
  TU193                0.00      0.00      0.00
  TU194               -0.00      0.00      0.00
  TU195                0.00      0.00      0.00
  TU196                0.00      0.00      0.00
  TU197                0.00      0.00      0.00
  TU198                0.00      0.00      0.00
  TU199                0.00      0.00      0.00
  TU2                  0.00      0.00      0.00
  TU20                 0.00      0.00      0.00
  TU200               -0.00      0.00      0.00
  TU201                0.00      0.00      0.00
  TU203                0.00      0.00      0.00
  TU204                0.00      0.00      0.00
  TU205                0.00      0.00      0.00
  TU21                -0.00      0.00      0.00
  TU22               483.00      0.27      0.07
  TU23               483.00      0.27      0.07
  TU24               483.00      0.27      0.07
  TU25               483.00      0.27      0.00
  TU26               371.00      0.36      0.17
  TU27               371.00      0.36      0.17
  TU28               371.00      0.36      0.17
  TU29               371.00      0.36      0.17
  TU3                  0.00      0.00      0.00
  TU30                 0.00      0.00      0.00
  TU31                -0.00      0.00      0.00
  TU32                 0.00      0.00      0.00
  TU33                 0.00      0.00      0.00
  TU34                57.00      0.26      0.24
  TU35                -0.00      0.00      0.00
  TU36                 0.00      0.00      0.00
  TU37                57.00      0.16      0.08
  TU38               112.00      0.32      0.26
  TU39                -0.00      0.00      0.00
  TU4                402.00      0.57      0.49
  TU40                 0.00      0.00      0.00
  TU41               112.00      0.25      0.14
  TU42                91.00      0.63      1.52
  TU43               112.00      0.16      0.05
  TU44               112.00      0.16      0.05
  TU45               112.00      0.16      0.05
  TU46               112.00      0.16      0.05
  TU47                -0.00      0.00      0.00
  TU48               158.00      2.08     19.86
  TU49               158.00      1.33      6.68
  TU5                402.00      0.57      0.49
  TU50                 0.00      0.00      0.00
  TU52               158.00      0.52      0.70
  TU53               158.00      0.52      0.70
  TU54                 0.00      0.00      0.00
  TU55               158.00      0.52      0.70
  TU56                 0.00      0.00      0.00
  TU57               158.00      0.45      0.48
  TU58                 0.00      0.00      0.00
  TU59               158.00      0.45      0.48
  TU6                112.00      0.16      0.05
  TU61                 0.00      0.00      0.00
  TU62                -0.00      0.00      0.00
  TU63                 0.00      0.00      0.00
  TU65                 0.00      0.00      0.00
  TU66                 0.00      0.00      0.00
  TU67                 0.00      0.00      0.00
  TU68                 0.00      0.00      0.00
  TU69               158.00      0.22      0.09
  TU7                  0.00      0.00      0.00
  TU70               247.00      0.35      0.20
  TU71               247.00      0.35      0.20
  TU72               124.00      0.27      0.17
  TU73               124.00      0.27      0.17
  TU74               124.00      0.27      0.17
  TU75               124.00      0.27      0.17
  TU76               124.00      0.27      0.17
  TU77               124.00      0.27      0.17
  TU78                 0.00      0.00      0.00
  TU79                 0.00      0.00      0.00
  TU8                 96.00      1.04      4.92
  TU80                61.00      1.26     10.32
  TU81                61.00      0.51      1.18
  TU82                63.00      1.12      7.66
  TU83                63.00      0.83      3.68
  TU84                 0.00      0.00      0.00
  TU85                 0.00      0.00      0.00
  TU86                 0.00      0.00      0.00
  TU87                 0.00      0.00      0.00
  TU88                63.00      0.14      0.05
  TU89                 0.00      0.00      0.00
  TU9                 57.00      0.96      5.57
  TU90                 0.00      0.00      0.00
  TU91                -0.00      0.00      0.00
  TU92                -0.00      0.00      0.00
  TU93                 0.00      0.00      0.00
  TU94                88.00      1.00      4.81
  TU95                88.00      0.25      0.17
  TU96                 0.00      0.00      0.00
  TU97                54.00      0.96      5.79
  TU98                54.00      0.62      1.98
  TU99               142.00      0.31      0.22
  TU4000              79.00      1.04      5.56
  TU60                -0.00      0.00      0.00
  TU64                 0.00      0.00      0.00
  TU51               158.00      0.84      2.19
  2                    0.00      0.00     36.00
  3                  158.00      3.26      0.00
   
  Analysis ended Fri Sep  8 13:25:20 2023
