  Page 1                                    Fri Sep  8 13:13:19 2023

  ******************************************************************
  *                           E P A N E T                          *
  *                   Hydraulic and Water Quality                  *
  *                   Analysis for Pipe Networks                   *
  *                         Version 2.2                            *
  ******************************************************************
  
  Analysis begun Fri Sep  8 13:13:19 2023

   
  Node Results:
  ----------------------------------------------
                     Demand      Head  Pressure
  Node                 m3/h         m         m
  ----------------------------------------------
  3661                 0.00    428.95     50.81
  482                  0.00    428.93     82.93
  661                  0.00    425.15     95.15
  6610                 0.00    428.49     68.49
  6611                 0.00    427.61     92.61
  6612                 0.00    428.49     66.12
  6613                 0.00    426.60     71.60
  6615                 0.00    425.29     86.29
  6616                 0.00    425.41     64.41
  6617                 0.00    425.32     82.32
  6618                 0.00    425.50     77.50
  662                  0.00    428.70    100.70
  6620                 0.00    424.28    116.28
  6621                 0.00    425.00     97.00
  6622                 0.00    425.16     88.16
  6623                 0.00    425.33     74.33
  6624                 0.00    425.36     73.36
  6625                 0.00    389.36     77.36
  6626                 0.00    425.36    104.36
  6627                 0.00    423.96    102.96
  6628                 0.00    427.24     88.24
  6629                 0.00    428.00     88.00
  663                  0.00    428.55     87.55
  6630                 0.00    428.38     88.58
  6632                 0.00    428.56     88.56
  6633                 0.00    428.90     66.26
  6634                 0.00    428.92     57.92
  6635                 0.00    428.94     76.94
  6636                 0.00    428.94     72.94
  6637                 0.00    428.93     61.93
  6639                 0.00    428.49     68.49
  664                  0.00    428.38     80.38
  6640                 0.00    428.49     68.49
  6641                 0.00    428.49     69.81
  6642                 0.00    428.49     72.49
  6643                 0.00    428.50     76.50
  6644                 0.00    428.51     76.51
  6645                 0.00    428.51     78.51
  6646                 0.00    428.38     81.36
  6648                 0.00    428.38     82.37
  6649                 0.00    428.01     89.01
  665                  0.00    428.28     83.28
  666                  0.00    428.38     88.38
  6665                 0.00    428.90     63.76
  6666                 0.00    428.92     61.26
  667                  0.00    428.51     76.51
  668                  0.00    425.15     95.15
  669                  0.00    427.84     82.84
  1                    0.00    428.80     98.80
  10                  63.00    428.14     76.14
  100                  0.00    428.49     73.49
  100B                 0.00    428.49     70.49
  101                  0.00    426.60     73.60
  103                  0.00    427.86     88.86
  104                  0.00    427.86     88.86
  105                117.00    426.56     71.56
  106                 52.00    426.53     71.53
  107                 77.00    425.00     86.00
  108                  0.00    425.29     86.73
  109                  0.00    425.29     88.29
  11B                117.00    428.23     85.23
  110                  0.00    425.49     79.49
  111                 55.00    425.44     86.66
  112                  0.00    425.47     83.47
  113                  0.00    425.41    102.41
  114                  0.00    425.33     77.33
  115                  0.00    425.32     79.32
  116                  0.00    425.32     80.32
  117                  0.00    425.32     82.32
  118                  0.00    425.32     86.32
  119                  0.00    425.32    102.51
  12                   0.00    428.08     97.74
  121                  0.00    425.36     76.56
  122                 53.00    422.78     74.88
  123                  0.00    424.96     78.96
  125                  0.00    425.35     74.35
  126                 65.00    425.25     77.25
  127                  0.00    425.25     81.92
  128                  0.00    425.40     63.40
  129                  0.00    425.29     69.29
  130                  0.00    425.21     84.13
  130B                 0.00    425.26     72.26
  132                 58.00    423.43     90.43
  134                  0.00    423.96    102.96
  135                 57.00    421.86    105.86
  137                 59.00    417.90    108.90
  139                  0.00    425.15     65.15
  14                   0.00    427.86     89.86
  140                  0.00    425.15     74.15
  141                  0.00    425.15     73.15
  142                  0.00    425.15     64.15
  143                  0.00    423.43     82.46
  144                  0.00    425.36     66.36
  146                  0.00    425.36     79.36
  147                  0.00    425.36    104.36
  148                  0.00    425.36     92.36
  149                  0.00    389.36     76.15
  15                   0.00    427.61     92.61
  150                  0.00    389.36     81.29
  151                  0.00    389.36     84.12
  152                  0.00    389.36     79.34
  153                  0.00    389.36     79.36
  154                  0.00    424.92     99.92
  157                  0.00    424.28    121.28
  158A                69.00    414.04     93.04
  158B                69.00    414.01     93.01
  16B                  0.00    427.88     93.88
  160                  0.00    428.93     61.93
  162                  0.00    428.93     60.93
  163                  0.00    428.92     54.92
  164                  0.00    428.91     69.25
  165                  0.00    428.90     67.60
  166                  0.00    428.90     67.89
  167                  0.00    428.90     58.26
  169                 44.00    428.85     62.35
  17A                  0.00    427.41     92.41
  170                  0.00    428.93     69.93
  17B                  0.00    427.22     92.22
  171                  0.00    428.94     76.94
  172                  0.00    428.94     88.94
  18B                222.00    421.34     96.34
  19                   0.00    428.90     70.90
  2                    0.00    428.72    102.72
  20                   0.00    428.95     64.95
  2002                 0.00    427.84     77.84
  2003                 0.00    427.84     77.84
  21                   0.00    425.63     64.03
  22                   0.00    425.63     64.03
  222                  0.00    425.60     75.60
  24                   0.00    425.57     81.57
  25                   0.00    425.55     80.55
  26                   0.00    425.50     77.50
  27                   0.00    425.52     75.52
  28                   0.00    425.49     75.49
  29                   0.00    425.42     69.42
  3                    0.00    428.63     88.28
  30                   0.00    425.41     64.41
  3002                 0.00    428.95     42.95
  3004                 0.00    428.95     42.95
  3005                 0.00    428.95     42.95
  3008                 0.00    428.95     43.95
  3012                 0.00    428.95     58.22
  3013                 0.00    428.95     64.02
  3016                 0.00    428.95     63.95
  3017               138.00    428.95     46.95
  3018                77.00    428.65     51.65
  3019                 0.00    428.95     59.56
  3020                 0.00    428.95     60.84
  3024                 0.00    428.95     64.01
  31                   0.00    425.38     67.59
  3152                 0.00    428.95     62.75
  32                   0.00    425.39     67.39
  34                   0.00    425.33     74.31
  35                   0.00    425.16     88.16
  36                   0.00    425.00     97.00
  39                   0.00    424.68    111.68
  41                   0.00    424.04    117.04
  46                   0.00    428.94     52.94
  47                   0.00    428.90     70.72
  48                   0.00    428.93     84.93
  49                   0.00    428.93     76.93
  5                    0.00    428.59     81.59
  52                   0.00    428.93     77.93
  53                   0.00    428.92     72.92
  54                   0.00    428.86     83.86
  55                   0.00    428.80     98.80
  56                   0.00    428.80     94.80
  58                   0.00    428.80     95.80
  59                   0.00    428.80     99.80
  6                    0.00    428.51     76.51
  60                   0.00    426.69     81.69
  61                  72.00    425.76     86.76
  62                 106.00    424.26     70.26
  64                  68.00    428.62     97.62
  65                   0.00    428.56     88.56
  66                   0.00    428.55     89.55
  67                   0.00    428.45     96.45
  68                   0.00    428.38     89.38
  69                   0.00    428.38     77.38
  7                   64.00    428.45     75.45
  70                 165.00    427.24     87.24
  71                  69.00    426.80     89.80
  72                   0.00    428.42     72.42
  73                   0.00    428.50     73.50
  77                   0.00    428.42     72.42
  78                   0.00    428.42     88.28
  79                  47.00    428.44     75.44
  8                    0.00    428.51     78.51
  80                   0.00    428.38     79.38
  81                   0.00    428.38     69.38
  82                   0.00    428.38     70.38
  85                   0.00    427.24     88.24
  86                   0.00    427.24     90.24
  87                   0.00    428.49     68.49
  88                   0.00    428.49     75.49
  89                  54.00    428.49     61.49
  90                   0.00    428.49     72.49
  91                   0.00    428.49     56.49
  92                   0.00    428.49     68.49
  91B                  0.00    428.49     68.49
  94                   0.00    428.01     89.01
  95                   0.00    427.43     84.43
  97                   0.00    427.03     96.03
  99                   0.00    428.49     78.49
  74                   0.00    428.50     69.79
  1074                 0.00    428.50     70.50
  11A                126.00    426.85     83.85
  1011                 0.00    427.03     84.03
  4                    0.00    425.36    113.36
  9                    0.00    424.28    114.28
  0                -1601.00    429.00      0.00  Reservoir
  balsa             -562.00    425.63      0.00  Reservoir
   
   
  Link Results:
  ----------------------------------------------
                       Flow  Velocity  Headloss
  Link                 m3/h       m/s    /1000m
  ----------------------------------------------
  TU1                 -0.00      0.00      0.00
  TU10               117.00      1.26      7.06
  TU100              234.00      0.52      0.54
  TU101              234.00      0.33      0.18
  TU102               -0.00      0.00      0.00
  TU103              234.00      0.33      0.18
  TU104              302.00      0.43      0.29
  TU105              968.00      0.42      0.14
  TU106              968.00      0.42      0.14
  TU107                0.00      0.00      0.00
  TU108             1040.00      0.45      0.16
  TU109             1342.00      0.59      0.26
  TU11               169.00      0.77      1.72
  TU110             1342.00      0.59      0.26
  TU111                0.00      0.00      0.00
  TU112               -0.00      0.00      0.00
  TU113                0.00      0.00      0.00
  TU114                0.00      0.00      0.00
  TU115             1342.00      0.47      0.15
  TU116             1342.00      0.47      0.15
  TU117               -0.00      0.00      0.00
  TU118                0.00      0.00      0.00
  TU119             1342.00      0.47      0.15
  TU12                 0.00      0.00      0.00
  TU120             1342.00      0.47      0.15
  TU121               -0.00      0.00      0.00
  TU122                0.00      0.00      0.00
  TU123               -0.00      0.00      0.00
  TU124                0.00      0.00      0.00
  TU125               -0.00      0.00      0.00
  TU126               -0.00      0.00      0.00
  TU127               -0.00      0.00      0.00
  TU128                0.00      0.00      0.00
  TU129                0.00      0.00      0.00
  TU13                 0.00      0.00      0.00
  TU130                0.00      0.00      0.00
  TU131               -0.00      0.00      0.00
  TU132               44.00      0.19      0.14
  TU133               44.00      0.19      0.14
  TU134               -0.00      0.00      0.00
  TU135               44.00      0.10      0.03
  TU136               44.00      0.10      0.03
  TU137               44.00      0.06      0.01
  TU138               44.00      0.06      0.01
  TU139               44.00      0.04      0.00
  TU14               169.00      0.37      0.30
  TU140              121.00      0.12      0.02
  TU141              106.00      1.78     17.35
  TU142              106.00      0.29      0.21
  TU143               -0.00      0.00      0.00
  TU144               -0.00      0.00      0.00
  TU145               -0.00      0.00      0.00
  TU146               -0.00      0.00      0.00
  TU147               -0.00      0.00      0.00
  TU148               -0.00      0.00      0.00
  TU149               -0.00      0.00      0.00
  TU15                -0.00      0.00      0.00
  TU150               -0.00      0.00      0.00
  TU151               -0.00      0.00      0.00
  TU152               -0.00      0.00      0.00
  TU15301             54.00      0.08      0.01
  TU15302             54.00      0.08      0.01
  TU1074               0.00      0.00      0.00
  TU154               54.00      0.05      0.01
  TU155               63.00      1.06      6.69
  TU156              117.00      0.11      0.02
  TU157              223.00      0.22      0.07
  TU158                0.00      0.00      0.00
  TU159              223.00      0.22      0.07
  TU16              1601.00      0.29      0.04
  TU160                0.00      0.00      0.00
  TU161              223.00      0.22      0.07
  TU162              745.00      0.54      0.30
  TU163              634.00      0.46      0.22
  TU164              681.00      0.49      0.25
  TU166               -0.00      0.00      0.00
  TU167               -0.00      0.00      0.00
  TU168                0.00      0.00      0.00
  TU169                0.00      0.00      0.00
  TU17                -0.00      0.00      0.00
  TU170                0.00      0.00      0.00
  TU171              634.00      0.46      0.22
  TU17201            126.00      1.66     13.08
  TU17202              0.00      0.00      0.00
  TU1011A            126.00      1.66     13.08
  TU173              126.00      0.92      3.13
  TU174               -0.00      0.00      0.00
  TU175              126.00      0.58      1.01
  TU176              391.00      0.38      0.19
  TU177              508.00      0.50      0.31
  TU178              391.00      0.38      0.19
  TU179              222.00      0.63      0.89
  TU18                 0.00      0.00      0.00
  TU180              222.00      0.63      0.89
  TU181              222.00      1.87     12.50
  TU182              222.00      1.02      2.84
  TU183               72.00      0.82      3.33
  TU184                0.00      0.00      0.00
  TU185              118.00      0.26      0.16
  TU186               44.00      0.12      0.04
  TU187               44.00      0.10      0.03
  TU188              485.00      0.35      0.14
  TU189              485.00      0.35      0.14
  TU19                77.00      1.37     11.06
  TU190               -0.00      0.00      0.00
  TU191               72.00      1.28      9.78
  TU192                0.00      0.00      0.00
  TU193                0.00      0.00      0.00
  TU194               -0.00      0.00      0.00
  TU195                0.00      0.00      0.00
  TU196                0.00      0.00      0.00
  TU197               -0.00      0.00      0.00
  TU198                0.00      0.00      0.00
  TU199                0.00      0.00      0.00
  TU2                  0.00      0.00      0.00
  TU20                77.00      0.56      1.28
  TU200               -0.00      0.00      0.00
  TU201                0.00      0.00      0.00
  TU203               77.00      1.30      9.65
  TU204                0.00      0.00      0.00
  TU205                0.00      0.00      0.00
  TU21                -0.00      0.00      0.00
  TU22               562.00      0.31      0.09
  TU23               562.00      0.31      0.09
  TU24               562.00      0.31      0.09
  TU25               562.00      0.31      0.12
  TU26               312.00      0.31      0.13
  TU27               312.00      0.31      0.13
  TU28               312.00      0.31      0.13
  TU29               312.00      0.31      0.13
  TU3                  0.00      0.00      0.00
  TU30                 0.00      0.00      0.00
  TU31                -0.00      0.00      0.00
  TU32                 0.00      0.00      0.00
  TU33                 0.00      0.00      0.00
  TU34                 0.00      0.00      0.00
  TU35                53.00      0.94      5.59
  TU36                53.00      0.61      1.91
  TU37                53.00      0.15      0.07
  TU38                53.00      0.15      0.07
  TU39                -0.00      0.00      0.00
  TU4                 54.00      0.08      0.01
  TU40                65.00      0.47      0.94
  TU41               118.00      0.26      0.16
  TU42                 0.00      0.00      0.00
  TU43               173.00      0.24      0.11
  TU44               173.00      0.24      0.11
  TU45               173.00      0.24      0.11
  TU46               173.00      0.24      0.11
  TU47                -0.00      0.00      0.00
  TU48               138.00      1.81     15.47
  TU49               138.00      1.16      5.21
  TU5                 54.00      0.08      0.01
  TU50                 0.00      0.00      0.00
  TU52               138.00      0.46      0.54
  TU53               138.00      0.46      0.54
  TU54                 0.00      0.00      0.00
  TU55               138.00      0.46      0.54
  TU56                 0.00      0.00      0.00
  TU57               138.00      0.39      0.38
  TU58                 0.00      0.00      0.00
  TU59               138.00      0.39      0.38
  TU6                118.00      0.17      0.05
  TU61                 0.00      0.00      0.00
  TU62                -0.00      0.00      0.00
  TU63                 0.00      0.00      0.00
  TU65                 0.00      0.00      0.00
  TU66                 0.00      0.00      0.00
  TU67                 0.00      0.00      0.00
  TU68                 0.00      0.00      0.00
  TU69               138.00      0.20      0.07
  TU7                  0.00      0.00      0.00
  TU70               138.00      0.20      0.07
  TU71               138.00      0.20      0.07
  TU72               174.00      0.38      0.31
  TU73               174.00      0.38      0.31
  TU74               174.00      0.38      0.31
  TU75               174.00      0.38      0.31
  TU76               174.00      0.38      0.31
  TU77               174.00      0.38      0.31
  TU78                59.00      1.22      9.72
  TU79               116.00      1.53     11.23
  TU8                  0.00      0.00      0.00
  TU80                 0.00      0.00      0.00
  TU81               116.00      0.98      3.80
  TU82                 0.00      0.00      0.00
  TU83                58.00      0.76      3.17
  TU84                 0.00      0.00      0.00
  TU85                 0.00      0.00      0.00
  TU86                 0.00      0.00      0.00
  TU87                 0.00      0.00      0.00
  TU88                58.00      0.13      0.04
  TU89                 0.00      0.00      0.00
  TU9                 52.00      0.87      4.72
  TU90                 0.00      0.00      0.00
  TU91                -0.00      0.00      0.00
  TU92               165.00      0.76      1.65
  TU93               165.00      0.47      0.52
  TU94                69.00      0.79      3.09
  TU95               234.00      0.66      0.98
  TU96                 0.00      0.00      0.00
  TU97                 0.00      0.00      0.00
  TU98                 0.00      0.00      0.00
  TU99               234.00      0.52      0.54
  TU4000              69.00      0.91      4.35
  TU60                -0.00      0.00      0.00
  TU64                 0.00      0.00      0.00
  TU51               138.00      0.73      1.71
  2                    0.00      0.00     36.00  PBV
  3                  138.00      2.84      0.00  PBV
   
  Analysis ended Fri Sep  8 13:13:19 2023
