  Page 1                                    Fri Sep  8 13:10:02 2023

  ******************************************************************
  *                           E P A N E T                          *
  *                   Hydraulic and Water Quality                  *
  *                   Analysis for Pipe Networks                   *
  *                         Version 2.2                            *
  ******************************************************************
  
  Analysis begun Fri Sep  8 13:10:02 2023

   
  Node Results:
  ----------------------------------------------
                     Demand      Head  Pressure
  Node                 m3/h         m         m
  ----------------------------------------------
  3661                 0.00    428.99     50.85
  482                  0.00    428.99     82.99
  661                  0.00    424.30     94.30
  6610                 0.00    428.72     68.72
  6611                 0.00    428.75     93.75
  6612                 0.00    428.76     66.39
  6613                 0.00    428.59     73.59
  6615                 0.00    424.92     85.92
  6616                 0.00    424.64     63.64
  6617                 0.00    424.52     81.52
  6618                 0.00    424.78     76.78
  662                  0.00    428.92    100.92
  6620                 0.00    424.06    116.06
  6621                 0.00    424.43     96.43
  6622                 0.00    424.51     87.51
  6623                 0.00    424.60     73.60
  6624                 0.00    424.62     72.62
  6625                 0.00    388.62     76.62
  6626                 0.00    424.62    103.62
  6627                 0.00    424.30    103.30
  6628                 0.00    428.11     89.11
  6629                 0.00    428.66     88.66
  663                  0.00    428.87     87.87
  6630                 0.00    428.80     89.00
  6632                 0.00    428.87     88.87
  6633                 0.00    428.97     66.33
  6634                 0.00    428.98     57.98
  6635                 0.00    428.99     76.99
  6636                 0.00    428.99     72.99
  6637                 0.00    428.99     61.99
  6639                 0.00    428.72     68.72
  664                  0.00    428.83     80.83
  6640                 0.00    428.72     68.72
  6641                 0.00    428.72     70.04
  6642                 0.00    428.68     72.68
  6643                 0.00    428.82     76.82
  6644                 0.00    428.83     76.83
  6645                 0.00    428.84     78.84
  6646                 0.00    428.83     81.81
  6648                 0.00    428.83     82.82
  6649                 0.00    428.81     89.81
  665                  0.00    428.81     83.81
  666                  0.00    428.80     88.80
  6665                 0.00    428.99     63.85
  6666                 0.00    428.99     61.33
  667                  0.00    428.83     76.83
  668                  0.00    424.30     94.30
  669                  0.00    428.55     83.55
  1                    0.00    428.95     98.95
  10                   0.00    428.82     76.82
  100                 99.00    428.65     73.65
  100B                 0.00    428.72     70.72
  101                  0.00    428.59     75.59
  103                  0.00    428.74     89.74
  104                  0.00    428.74     89.74
  105                  0.00    428.59     73.59
  106                 52.00    428.52     73.52
  107                  0.00    424.92     85.92
  108                  0.00    424.92     86.36
  109                  0.00    424.92     87.92
  11B                109.00    428.80     85.80
  110                 69.00    424.75     78.75
  111                 55.00    424.68     85.90
  112                  0.00    424.72     82.72
  113                  0.00    424.62    101.62
  114                  0.00    424.52     76.52
  115                  0.00    424.52     78.52
  116                  0.00    424.52     79.52
  117                  0.00    424.52     81.52
  118                  0.00    424.52     85.52
  119                  0.00    424.52    101.71
  12                  55.00    428.77     98.43
  121                  0.00    424.53     75.73
  122                  0.00    424.52     76.62
  123                  0.00    424.52     78.52
  125                  0.00    424.52     73.52
  126                  0.00    423.97     75.97
  127                161.00    421.78     78.45
  128                  0.00    424.63     62.63
  129                  0.00    424.39     68.39
  130                162.00    424.30     83.22
  130B                60.00    424.34     71.34
  132                  0.00    424.30     91.30
  134                  0.00    424.30    103.30
  135                  0.00    424.30    108.30
  137                  0.00    424.30    115.30
  139                  0.00    424.30     64.30
  14                  51.00    428.74     90.74
  140                  0.00    424.30     73.30
  141                  0.00    424.30     72.30
  142                  0.00    424.30     63.30
  143                  0.00    424.30     83.33
  144                 83.00    424.49     65.49
  146                  0.00    424.62     78.62
  147                  0.00    424.62    103.62
  148                  0.00    424.62     91.62
  149                  0.00    388.62     75.41
  15                   0.00    428.75     93.75
  150                  0.00    388.62     80.55
  151                  0.00    388.62     83.38
  152                  0.00    388.62     78.60
  153                  0.00    388.62     78.62
  154                  0.00    424.39     99.39
  157                  0.00    424.06    121.06
  158A                48.00    418.80     97.80
  158B                48.00    418.79     97.79
  16B                  0.00    428.75     94.75
  160                  0.00    428.99     61.99
  162                  0.00    428.99     60.99
  163                  0.00    428.99     54.99
  164                  0.00    428.99     69.33
  165                  0.00    428.99     67.69
  166                  0.00    428.99     67.98
  167                  0.00    428.99     58.35
  169                  0.00    428.99     62.49
  17A                  0.00    428.75     93.75
  170                  0.00    428.99     69.99
  17B                  0.00    428.75     93.75
  171                  0.00    428.99     76.99
  172                  0.00    428.99     88.99
  18B                  0.00    428.75    103.75
  19                   0.00    428.97     70.97
  2                    0.00    428.92    102.92
  20                   0.00    428.99     64.99
  2002                 0.00    428.55     78.55
  2003                 0.00    428.55     78.55
  21                   0.00    425.00     63.40
  22                   0.00    425.00     63.40
  222                  0.00    424.95     74.95
  24                   0.00    424.92     80.92
  25                   0.00    424.87     79.87
  26                   0.00    424.78     76.78
  27                   0.00    424.81     74.81
  28                   0.00    424.77     74.77
  29                   0.00    424.66     68.66
  3                    0.00    428.90     88.55
  30                   0.00    424.65     63.65
  3002                 0.00    428.99     42.99
  3004                 0.00    428.99     42.99
  3005                 0.00    428.99     42.99
  3008                 0.00    428.99     43.99
  3012                 0.00    428.99     58.26
  3013                 0.00    428.99     64.06
  3016                 0.00    428.99     63.99
  3017                 0.00    428.99     46.99
  3018                 0.00    428.99     51.99
  3019                 0.00    428.99     59.60
  3020                 0.00    428.99     60.88
  3024                 0.00    428.99     64.05
  31                   0.00    424.63     66.84
  3152                 0.00    428.99     62.79
  32                   0.00    424.63     66.63
  34                   0.00    424.60     73.58
  35                   0.00    424.51     87.51
  36                   0.00    424.43     96.43
  39                   0.00    424.27    111.27
  41                   0.00    423.93    116.93
  46                   0.00    428.99     52.99
  47                   0.00    428.99     70.81
  48                   0.00    428.99     84.99
  49                   0.00    428.99     76.99
  5                    0.00    428.88     81.88
  52                   0.00    428.99     77.99
  53                   0.00    428.98     72.98
  54                   0.00    428.96     83.96
  55                   0.00    428.95     98.95
  56                   0.00    428.95     94.95
  58                   0.00    428.95     95.95
  59                   0.00    428.95     99.95
  6                    0.00    428.83     76.83
  60                   0.00    428.90     83.90
  61                   0.00    428.90     89.90
  62                   0.00    428.83     74.83
  64                   0.00    428.90     97.90
  65                   0.00    428.87     88.87
  66                   0.00    428.87     89.87
  67                   0.00    428.83     96.83
  68                   0.00    428.80     89.80
  69                   0.00    428.80     77.80
  7                   66.00    428.85     75.85
  70                 138.00    428.11     88.11
  71                   0.00    428.66     91.66
  72                   0.00    428.83     72.83
  73                   0.00    428.81     73.81
  77                   0.00    428.83     72.83
  78                   0.00    428.83     88.69
  79                   0.00    428.85     75.85
  8                    0.00    428.84     78.84
  80                   0.00    428.83     79.83
  81                   0.00    428.83     69.83
  82                   0.00    428.83     70.83
  85                   0.00    428.11     89.11
  86                   0.00    428.11     91.11
  87                   0.00    428.78     68.78
  88                   0.00    428.76     75.76
  89                   0.00    428.73     61.73
  90                   0.00    428.68     72.68
  91                   0.00    428.72     56.72
  92                   0.00    428.72     68.72
  91B                  0.00    428.72     68.72
  94                   0.00    428.81     89.81
  95                   0.00    428.81     85.81
  97                   0.00    428.81     97.81
  99                  62.00    428.18     78.18
  74                  41.00    428.11     69.40
  1074                 0.00    428.81     70.81
  11A                  0.00    428.81     85.81
  1011                 0.00    428.81     85.81
  4                    0.00    424.62    112.62
  9                    0.00    424.06    114.06
  0                 -673.00    429.00      0.00  Reservoir
  balsa             -686.00    425.00     -0.00  Reservoir
   
   
  Link Results:
  ----------------------------------------------
                       Flow  Velocity  Headloss
  Link                 m3/h       m/s    /1000m
  ----------------------------------------------
  TU1                 -0.00      0.00      0.00
  TU10                 0.00      0.00      0.00
  TU100              138.00      0.31      0.21
  TU101              138.00      0.20      0.07
  TU102               -0.00      0.00      0.00
  TU103              138.00      0.20      0.07
  TU104              138.00      0.20      0.07
  TU105              535.00      0.23      0.05
  TU106              535.00      0.23      0.05
  TU107                0.00      0.00      0.00
  TU108              535.00      0.23      0.05
  TU109              673.00      0.29      0.07
  TU11                52.00      0.24      0.21
  TU110              673.00      0.29      0.07
  TU111               -0.00      0.00      0.00
  TU112               -0.00      0.00      0.00
  TU113                0.00      0.00      0.00
  TU114                0.00      0.00      0.00
  TU115              673.00      0.24      0.04
  TU116              673.00      0.24      0.04
  TU117               -0.00      0.00      0.00
  TU118                0.00      0.00      0.00
  TU119              673.00      0.24      0.04
  TU12                 0.00      0.00      0.00
  TU120              673.00      0.24      0.04
  TU121               -0.00      0.00      0.00
  TU122                0.00      0.00      0.00
  TU123               -0.00      0.00      0.00
  TU124                0.00      0.00      0.00
  TU125               -0.00      0.00      0.00
  TU126               -0.00      0.00      0.00
  TU127               -0.00      0.00      0.00
  TU128                0.00      0.00      0.00
  TU129                0.00      0.00      0.00
  TU13                 0.00      0.00      0.00
  TU130               -0.00      0.00      0.00
  TU131               -0.00      0.00      0.00
  TU132                0.00      0.00      0.00
  TU133               -0.00      0.00      0.00
  TU134               -0.00      0.00      0.00
  TU135               -0.00      0.00      0.00
  TU136                0.00      0.00      0.00
  TU137                0.00      0.00      0.00
  TU138                0.00      0.00      0.00
  TU139                0.00      0.00      0.00
  TU14               103.00      0.23      0.12
  TU140                0.00      0.00      0.00
  TU141                0.00      0.00      0.00
  TU142                0.00      0.00      0.00
  TU143               -0.00      0.00      0.00
  TU144               -0.00      0.00      0.00
  TU145               -0.00      0.00      0.00
  TU146               -0.00      0.00      0.00
  TU147               -0.00      0.00      0.00
  TU148                0.00      0.00      0.00
  TU149               99.00      0.69      1.77
  TU15                -0.00      0.00      0.00
  TU150               99.00      0.69      1.77
  TU151               99.00      0.14      0.04
  TU152               62.00      0.71      2.54
  TU15301            202.00      0.29      0.14
  TU15302            161.00      0.23      0.09
  TU1074              41.00      0.54      1.69
  TU154              202.00      0.20      0.06
  TU155               -0.00      0.00      0.00
  TU156              202.00      0.20      0.06
  TU157              202.00      0.20      0.06
  TU158                0.00      0.00      0.00
  TU159              202.00      0.20      0.06
  TU16               673.00      0.12      0.01
  TU160                0.00      0.00      0.00
  TU161              202.00      0.20      0.06
  TU162              333.00      0.24      0.07
  TU163              267.00      0.19      0.05
  TU164              267.00      0.19      0.04
  TU166               -0.00      0.00      0.00
  TU167               -0.00      0.00      0.00
  TU168                0.00      0.00      0.00
  TU169                0.00      0.00      0.00
  TU17                -0.00      0.00      0.00
  TU170                0.00      0.00      0.00
  TU171              267.00      0.19      0.05
  TU17201             -0.00      0.00      0.00
  TU17202              0.00      0.00      0.00
  TU1011A             -0.00      0.00      0.00
  TU173               -0.00      0.00      0.00
  TU174               -0.00      0.00      0.00
  TU175               -0.00      0.00      0.00
  TU176              158.00      0.16      0.04
  TU177              267.00      0.26      0.10
  TU178              103.00      0.10      0.02
  TU179                0.00      0.00      0.00
  TU18                 0.00      0.00      0.00
  TU180                0.00      0.00      0.00
  TU181                0.00      0.00      0.00
  TU182                0.00      0.00      0.00
  TU183                0.00      0.00      0.00
  TU184                0.00      0.00      0.00
  TU185              161.00      0.36      0.27
  TU186               -0.00      0.00      0.00
  TU187               -0.00      0.00      0.00
  TU188              686.00      0.50      0.25
  TU189              686.00      0.50      0.25
  TU19                 0.00      0.00      0.00
  TU190               -0.00      0.00      0.00
  TU191               -0.00      0.00      0.00
  TU192                0.00      0.00      0.00
  TU193                0.00      0.00      0.00
  TU194               -0.00      0.00      0.00
  TU195                0.00      0.00      0.00
  TU196                0.00      0.00      0.00
  TU197               -0.00      0.00      0.00
  TU198                0.00      0.00      0.00
  TU199                0.00      0.00      0.00
  TU2                  0.00      0.00      0.00
  TU20                -0.00      0.00      0.00
  TU200               -0.00      0.00      0.00
  TU201                0.00      0.00      0.00
  TU203                0.00      0.00      0.00
  TU204                0.00      0.00      0.00
  TU205                0.00      0.00      0.00
  TU21                -0.00      0.00      0.00
  TU22               686.00      0.38      0.13
  TU23               686.00      0.38      0.13
  TU24               686.00      0.38      0.13
  TU25               686.00      0.38      0.12
  TU26               401.00      0.39      0.20
  TU27               401.00      0.39      0.20
  TU28               401.00      0.39      0.20
  TU29               401.00      0.39      0.20
  TU3                  0.00      0.00      0.00
  TU30                 0.00      0.00      0.00
  TU31                -0.00      0.00      0.00
  TU32                 0.00      0.00      0.00
  TU33                 0.00      0.00      0.00
  TU34                 0.00      0.00      0.00
  TU35                 0.00      0.00      0.00
  TU36                 0.00      0.00      0.00
  TU37                 0.00      0.00      0.00
  TU38                 0.00      0.00      0.00
  TU39               161.00      1.84     14.56
  TU4                161.00      0.23      0.09
  TU40               161.00      1.18      4.91
  TU41               161.00      0.36      0.27
  TU42                 0.00      0.00      0.00
  TU43               216.00      0.31      0.16
  TU44               216.00      0.31      0.16
  TU45               285.00      0.40      0.26
  TU46               285.00      0.40      0.26
  TU47                -0.00      0.00      0.00
  TU48                96.00      1.26      7.94
  TU49                96.00      0.81      2.69
  TU5                161.00      0.23      0.09
  TU50                 0.00      0.00      0.00
  TU52                96.00      0.32      0.28
  TU53                96.00      0.32      0.28
  TU54                 0.00      0.00      0.00
  TU55                96.00      0.32      0.28
  TU56                 0.00      0.00      0.00
  TU57                96.00      0.27      0.20
  TU58                 0.00      0.00      0.00
  TU59                96.00      0.27      0.20
  TU6                161.00      0.23      0.09
  TU61                 0.00      0.00      0.00
  TU62                -0.00      0.00      0.00
  TU63                 0.00      0.00      0.00
  TU65                 0.00      0.00      0.00
  TU66                 0.00      0.00      0.00
  TU67                 0.00      0.00      0.00
  TU68                 0.00      0.00      0.00
  TU69                96.00      0.14      0.04
  TU7                  0.00      0.00      0.00
  TU70                96.00      0.14      0.04
  TU71                96.00      0.14      0.04
  TU72                 0.00      0.00      0.00
  TU73               162.00      0.36      0.28
  TU74               222.00      0.49      0.49
  TU75               222.00      0.49      0.49
  TU76               305.00      0.67      0.87
  TU77               305.00      0.67      0.87
  TU78                 0.00      0.00      0.00
  TU79                 0.00      0.00      0.00
  TU8                  0.00      0.00      0.00
  TU80                 0.00      0.00      0.00
  TU81                 0.00      0.00      0.00
  TU82                 0.00      0.00      0.00
  TU83                 0.00      0.00      0.00
  TU84                 0.00      0.00      0.00
  TU85                 0.00      0.00      0.00
  TU86                 0.00      0.00      0.00
  TU87                 0.00      0.00      0.00
  TU88                 0.00      0.00      0.00
  TU89                 0.00      0.00      0.00
  TU9                 52.00      0.87      4.72
  TU90                 0.00      0.00      0.00
  TU91                -0.00      0.00      0.00
  TU92               138.00      0.63      1.19
  TU93               138.00      0.39      0.38
  TU94                 0.00      0.00      0.00
  TU95               138.00      0.39      0.38
  TU96                 0.00      0.00      0.00
  TU97                 0.00      0.00      0.00
  TU98                 0.00      0.00      0.00
  TU99               138.00      0.31      0.21
  TU4000              48.00      0.63      2.25
  TU60                -0.00      0.00      0.00
  TU64                 0.00      0.00      0.00
  TU51                96.00      0.51      0.88
  2                   -0.00      0.00     36.00  PBV
  3                   96.00      1.98      0.00  PBV
   
  Analysis ended Fri Sep  8 13:10:02 2023
