  Page 1                                    Fri Sep  8 13:20:00 2023

  ******************************************************************
  *                           E P A N E T                          *
  *                   Hydraulic and Water Quality                  *
  *                   Analysis for Pipe Networks                   *
  *                         Version 2.2                            *
  ******************************************************************
  
  Analysis begun Fri Sep  8 13:20:00 2023

   
  Node Results:
  ----------------------------------------------
                     Demand      Head  Pressure
  Node                 m3/h         m         m
  ----------------------------------------------
  3661                 0.00    428.94     50.80
  482                  0.00    428.78     82.78
  661                  0.00    422.51     92.51
  6610                 0.00    427.49     67.49
  6611                 0.00    424.95     89.95
  6612                 0.00    427.71     65.34
  6613                 0.00    424.42     69.42
  6615                 0.00    423.71     84.71
  6616                 0.00    423.05     62.05
  6617                 0.00    422.61     79.61
  6618                 0.00    423.63     75.63
  662                  0.00    428.54    100.54
  6620                 0.00    421.83    113.83
  6621                 0.00    422.38     94.38
  6622                 0.00    422.50     85.50
  6623                 0.00    422.63     71.63
  6624                 0.00    422.69     70.69
  6625                 0.00    385.61     73.61
  6626                 0.00    422.10    101.10
  6627                 0.00    422.13    101.13
  6628                 0.00    428.52     89.52
  6629                 0.00    428.52     88.52
  663                  0.00    428.20     87.20
  6630                 0.00    428.12     88.32
  6632                 0.00    428.53     88.53
  6633                 0.00    428.84     66.20
  6634                 0.00    428.87     57.87
  6635                 0.00    428.93     76.93
  6636                 0.00    428.93     72.93
  6637                 0.00    428.92     61.92
  6639                 0.00    427.53     67.53
  664                  0.00    427.87     79.87
  6640                 0.00    427.49     67.49
  6641                 0.00    427.56     68.88
  6642                 0.00    427.56     71.56
  6643                 0.00    427.94     75.94
  6644                 0.00    428.01     76.01
  6645                 0.00    428.03     78.03
  6646                 0.00    427.87     80.85
  6648                 0.00    427.87     81.86
  6649                 0.00    427.57     88.57
  665                  0.00    427.64     82.64
  666                  0.00    428.52     88.52
  6665                 0.00    428.92     63.78
  6666                 0.00    428.92     61.26
  667                  0.00    428.01     76.01
  668                  0.00    422.51     92.51
  669                  0.00    428.52     83.52
  1                    0.00    428.70     98.70
  10                  67.00    427.54     75.54
  100                  0.00    427.56     72.56
  100B                81.00    427.02     69.02
  101                124.00    423.97     70.97
  103                  0.00    423.67     84.67
  104                155.00    423.50     84.50
  105                  0.00    424.42     69.42
  106                 55.00    424.34     69.34
  107                  0.00    423.71     84.71
  108                 58.00    422.89     84.33
  109                  0.00    423.53     86.53
  11B                  0.00    427.50     84.50
  110                  0.00    423.61     77.61
  111                  0.00    423.51     84.73
  112                  0.00    423.56     81.56
  113                  0.00    423.38    100.38
  114                 57.00    422.98     74.98
  115                 55.00    422.72     76.72
  116                  0.00    422.89     77.89
  117                 74.00    422.52     79.52
  118                  0.00    422.61     83.61
  119                  0.00    422.61     99.80
  12                   0.00    426.81     96.47
  121                  0.00    423.18     74.38
  122                  0.00    422.89     74.99
  123                  0.00    422.89     76.89
  125                  0.00    423.16     72.16
  126                 65.00    423.05     75.05
  127                  0.00    423.05     79.72
  128                  0.00    423.03     61.03
  129                  0.00    422.68     66.68
  130                160.00    422.52     81.44
  130B                63.00    422.60     69.60
  132                  0.00    422.51     89.51
  134                 62.00    421.82    100.82
  135                  0.00    422.13    106.13
  137                  0.00    422.13    113.13
  139                  0.00    422.51     62.51
  14                   0.00    425.81     87.81
  140                  0.00    422.51     71.51
  141                  0.00    422.51     70.51
  142                  0.00    422.51     61.51
  143                  0.00    422.51     81.54
  144                 87.00    422.84     63.84
  146                  0.00    422.32     76.32
  147                  0.00    422.10    101.10
  148                 73.00    422.26     89.26
  149                  0.00    385.61     72.40
  15                 217.00    424.31     89.31
  150                 96.00    385.04     76.97
  151                  0.00    384.80     79.56
  152                 67.00    382.96     72.94
  153                  0.00    383.59     73.59
  154                  0.00    422.32     97.32
  157                  0.00    421.83    118.83
  158A                59.00    414.16     93.16
  158B                59.00    414.14     93.14
  16B                136.00    425.90     91.90
  160                  0.00    428.92     61.92
  162                  0.00    428.92     60.92
  163                  0.00    428.92     54.92
  164                  0.00    428.92     69.26
  165                  0.00    428.92     67.62
  166                  0.00    428.92     67.91
  167                  0.00    428.92     58.28
  169                  0.00    428.92     62.42
  17A                  0.00    424.76     89.76
  170                  0.00    428.93     69.93
  17B                  0.00    424.57     89.57
  171                  0.00    428.93     76.93
  172                  0.00    428.93     88.93
  18B                219.00    418.84     93.84
  19                   0.00    428.84     70.84
  2                    0.00    428.58    102.58
  20                   0.00    428.94     64.94
  2002                 0.00    428.52     78.52
  2003                 0.00    428.52     78.52
  21                   0.00    424.09     62.49
  22                   0.00    424.08     62.48
  222                  0.00    423.96     73.96
  24                   0.00    423.88     79.88
  25                   0.00    423.77     78.77
  26                   0.00    423.63     75.63
  27                   0.00    423.66     73.66
  28                   0.00    423.52     73.52
  29                   0.00    423.12     67.12
  3                    0.00    428.39     88.04
  30                   0.00    423.07     62.07
  3002                 0.00    428.94     42.94
  3004                 0.00    428.94     42.94
  3005                 0.00    428.94     42.94
  3008                 0.00    428.94     43.94
  3012                 0.00    428.94     58.21
  3013                 0.00    428.94     64.01
  3016                 0.00    428.94     63.94
  3017                 0.00    428.94     46.94
  3018                 0.00    428.93     51.93
  3019                 0.00    428.94     59.55
  3020                 0.00    428.94     60.83
  3024                 0.00    428.94     64.00
  31                   0.00    422.82     65.03
  3152                 0.00    428.94     62.74
  32                   0.00    422.92     64.92
  34                  74.00    422.44     71.42
  35                   0.00    422.50     85.50
  36                   0.00    422.38     94.38
  39                   0.00    422.14    109.14
  41                   0.00    421.66    114.66
  46                   0.00    428.93     52.93
  47                   0.00    428.92     70.74
  48                   0.00    428.71     84.71
  49                  59.00    428.25     76.25
  5                    0.00    428.29     81.29
  52                   0.00    428.25     77.25
  53                 154.00    425.29     69.29
  54                   0.00    428.79     83.79
  55                   0.00    428.70     98.70
  56                   0.00    428.70     94.70
  58                   0.00    428.70     95.70
  59                   0.00    428.70     99.70
  6                    0.00    428.01     76.01
  60                   0.00    426.25     81.25
  61                  76.00    425.23     86.23
  62                   0.00    428.01     74.01
  64                   0.00    428.54     97.54
  65                   0.00    428.53     88.53
  66                   0.00    428.53     89.53
  67                   0.00    428.52     96.52
  68                   0.00    428.12     89.12
  69                  59.00    427.33     76.33
  7                   68.00    428.01     75.01
  70                   0.00    428.52     88.52
  71                   0.00    428.52     91.52
  72                   0.00    428.01     72.01
  73                   0.00    427.93     72.93
  77                   0.00    428.01     72.01
  78                   0.00    428.01     87.87
  79                   0.00    428.00     75.00
  8                   64.00    427.81     77.81
  80                   0.00    427.87     78.87
  81                   0.00    427.87     68.87
  82                   0.00    427.87     69.87
  85                   0.00    428.52     89.52
  86                   0.00    428.52     91.52
  87                   0.00    427.78     67.78
  88                   0.00    427.71     74.71
  89                   0.00    427.57     60.57
  90                   0.00    427.56     71.56
  91                   0.00    427.53     55.53
  92                   0.00    427.49     67.49
  91B                  0.00    427.49     67.49
  94                   0.00    427.57     88.57
  95                   0.00    427.40     84.40
  97                   0.00    427.29     96.29
  99                 296.00    417.68     67.68
  74                   0.00    427.91     69.20
  1074                 0.00    427.91     69.91
  11A                 63.00    427.24     84.24
  1011                 0.00    427.29     84.29
  4                    0.00    421.61    109.61
  9                    0.00    421.83    111.83
  0                -1893.00    429.00      0.00  Reservoir
  balsa            -1109.00    424.09     -0.00  Reservoir
   
   
  Link Results:
  ----------------------------------------------
                       Flow  Velocity  Headloss
  Link                 m3/h       m/s    /1000m
  ----------------------------------------------
  TU1                 -0.00      0.00      0.00
  TU10                 0.00      0.00      0.00
  TU100               59.00      0.13      0.04
  TU101               59.00      0.08      0.01
  TU102                0.00      0.00      0.00
  TU103               59.00      0.08      0.02
  TU104               59.00      0.08      0.02
  TU105             1545.00      0.67      0.33
  TU106             1545.00      0.67      0.33
  TU107                0.00      0.00      0.00
  TU108             1621.00      0.71      0.36
  TU109             1680.00      0.73      0.39
  TU11               179.00      0.82      1.91
  TU110             1680.00      0.73      0.39
  TU111                0.00      0.00      0.00
  TU112               -0.00      0.00      0.00
  TU113                0.00      0.00      0.00
  TU114                0.00      0.00      0.00
  TU115             1680.00      0.59      0.23
  TU116             1680.00      0.59      0.23
  TU117              154.00      1.66     11.70
  TU118                0.00      0.00      0.00
  TU119             1680.00      0.59      0.23
  TU12               155.00      1.77     13.57
  TU120             1834.00      0.65      0.27
  TU121               -0.00      0.00      0.00
  TU122                0.00      0.00      0.00
  TU123               -0.00      0.00      0.00
  TU124                0.00      0.00      0.00
  TU125               59.00      0.43      0.79
  TU126               59.00      0.27      0.26
  TU127               59.00      0.27      0.26
  TU128                0.00      0.00      0.00
  TU129                0.00      0.00      0.00
  TU13               155.00      1.13      4.58
  TU130               -0.00      0.00      0.00
  TU131               -0.00      0.00      0.00
  TU132                0.00      0.00      0.00
  TU133               -0.00      0.00      0.00
  TU134               -0.00      0.00      0.00
  TU135               -0.00      0.00      0.00
  TU136                0.00      0.00      0.00
  TU137               59.00      0.08      0.02
  TU138               59.00      0.08      0.02
  TU139               59.00      0.06      0.01
  TU14               334.00      0.74      1.02
  TU140               59.00      0.06      0.01
  TU141                0.00      0.00      0.00
  TU142                0.00      0.00      0.00
  TU143               -0.00      0.00      0.00
  TU144               81.00      0.87      3.61
  TU145               -0.00      0.00      0.00
  TU146               81.00      0.35      0.40
  TU147               81.00      0.22      0.13
  TU148               -0.00      0.00      0.00
  TU149               -0.00      0.00      0.00
  TU15                -0.00      0.00      0.00
  TU150               -0.00      0.00      0.00
  TU151               81.00      0.11      0.03
  TU152              296.00      3.38     45.13
  TU15301            377.00      0.53      0.43
  TU15302            377.00      0.53      0.43
  TU1074               0.00      0.00      0.00
  TU154              377.00      0.37      0.18
  TU155               67.00      1.13      7.48
  TU156              444.00      0.44      0.24
  TU157              444.00      0.44      0.24
  TU158                0.00      0.00      0.00
  TU159              444.00      0.44      0.24
  TU16              1893.00      0.34      0.06
  TU160               64.00      1.14      7.89
  TU161              508.00      0.50      0.31
  TU162             1037.00      0.75      0.54
  TU163              969.00      0.70      0.48
  TU164              969.00      0.70      0.48
  TU166               -0.00      0.00      0.00
  TU167               -0.00      0.00      0.00
  TU168                0.00      0.00      0.00
  TU169                0.00      0.00      0.00
  TU17                58.00      1.03      6.59
  TU170                0.00      0.00      0.00
  TU171              969.00      0.70      0.48
  TU17201             63.00      0.83      3.68
  TU17202              0.00      0.00      0.00
  TU1011A             63.00      0.83      3.68
  TU173               63.00      0.46      0.89
  TU174               -0.00      0.00      0.00
  TU175               63.00      0.29      0.29
  TU176              906.00      0.89      0.89
  TU177              906.00      0.89      0.89
  TU178              906.00      0.89      0.89
  TU179              436.00      1.24      3.06
  TU18                58.00      0.66      2.25
  TU180              219.00      0.62      0.87
  TU181              219.00      1.84     12.19
  TU182              219.00      1.00      2.77
  TU183               76.00      0.87      3.68
  TU184                0.00      0.00      0.00
  TU185              251.00      0.55      0.61
  TU186               -0.00      0.00      0.00
  TU187               -0.00      0.00      0.00
  TU188             1051.00      0.76      0.55
  TU189             1051.00      0.76      0.55
  TU19                 0.00      0.00      0.00
  TU190               67.00      0.88      4.12
  TU191               76.00      1.35     10.79
  TU192                0.00      0.00      0.00
  TU193                0.00      0.00      0.00
  TU194               -0.00      0.00      0.00
  TU195                0.00      0.00      0.00
  TU196                0.00      0.00      0.00
  TU197               -0.00      0.00      0.00
  TU198                0.00      0.00      0.00
  TU199                0.00      0.00      0.00
  TU2                217.00      2.48     25.30
  TU20                58.00      0.42      0.77
  TU200               -0.00      0.00      0.00
  TU201                0.00      0.00      0.00
  TU203                0.00      0.00      0.00
  TU204                0.00      0.00      0.00
  TU205                0.00      0.00      0.00
  TU21                67.00      0.56      1.40
  TU22              1109.00      0.61      0.32
  TU23              1109.00      0.61      0.32
  TU24              1109.00      0.61      0.32
  TU25              1109.00      0.61      0.25
  TU26               800.00      0.79      0.71
  TU27               800.00      0.79      0.71
  TU28               800.00      0.79      0.71
  TU29               800.00      0.79      0.71
  TU3                  0.00      0.00      0.00
  TU30                 0.00      0.00      0.00
  TU31                -0.00      0.00      0.00
  TU32                74.00      0.84      3.50
  TU33                74.00      0.34      0.39
  TU34               129.00      0.59      1.05
  TU35                -0.00      0.00      0.00
  TU36                 0.00      0.00      0.00
  TU37               129.00      0.37      0.33
  TU38               186.00      0.53      0.65
  TU39                -0.00      0.00      0.00
  TU4                377.00      0.53      0.43
  TU40                65.00      0.47      0.94
  TU41               251.00      0.55      0.61
  TU42                 0.00      0.00      0.00
  TU43               251.00      0.36      0.21
  TU44               251.00      0.36      0.21
  TU45               251.00      0.36      0.21
  TU46               251.00      0.36      0.21
  TU47                -0.00      0.00      0.00
  TU48               118.00      1.55     11.59
  TU49               118.00      0.99      3.92
  TU5                377.00      0.53      0.43
  TU50                 0.00      0.00      0.00
  TU52               118.00      0.39      0.41
  TU53               118.00      0.39      0.41
  TU54                 0.00      0.00      0.00
  TU55               118.00      0.39      0.41
  TU56                 0.00      0.00      0.00
  TU57               118.00      0.33      0.28
  TU58                74.00      1.32     10.28
  TU59               192.00      0.54      0.68
  TU6                251.00      0.36      0.21
  TU61                 0.00      0.00      0.00
  TU62               163.00      0.87      2.32
  TU63                 0.00      0.00      0.00
  TU65                 0.00      0.00      0.00
  TU66               163.00      0.54      0.74
  TU67               236.00      0.67      1.00
  TU68               236.00      0.67      1.00
  TU69               428.00      0.61      0.55
  TU7                  0.00      0.00      0.00
  TU70               428.00      0.61      0.55
  TU71               428.00      0.61      0.55
  TU72                62.00      0.14      0.05
  TU73               222.00      0.49      0.49
  TU74               285.00      0.63      0.77
  TU75               285.00      0.63      0.77
  TU76               372.00      0.82      1.25
  TU77               372.00      0.82      1.25
  TU78                 0.00      0.00      0.00
  TU79                 0.00      0.00      0.00
  TU8                124.00      1.34      7.85
  TU80                62.00      1.28     10.64
  TU81                62.00      0.52      1.22
  TU82                -0.00      0.00      0.00
  TU83                 0.00      0.00      0.00
  TU84                 0.00      0.00      0.00
  TU85                 0.00      0.00      0.00
  TU86                 0.00      0.00      0.00
  TU87                 0.00      0.00      0.00
  TU88                 0.00      0.00      0.00
  TU89                 0.00      0.00      0.00
  TU9                 55.00      0.93      5.22
  TU90                 0.00      0.00      0.00
  TU91                -0.00      0.00      0.00
  TU92                 0.00      0.00      0.00
  TU93                 0.00      0.00      0.00
  TU94                 0.00      0.00      0.00
  TU95                 0.00      0.00      0.00
  TU96                 0.00      0.00      0.00
  TU97                59.00      1.05      6.80
  TU98                59.00      0.67      2.32
  TU99                59.00      0.13      0.05
  TU4000              59.00      0.78      3.27
  TU60                67.00      1.38     12.26
  TU64               163.00      0.87      2.32
  TU51               118.00      0.63      1.29
  2                  163.00      3.36     36.00  PBV
  3                  118.00      2.43      0.00  PBV
   
  Analysis ended Fri Sep  8 13:20:00 2023
