  Page 1                                    Fri Sep  8 13:19:59 2023

  ******************************************************************
  *                           E P A N E T                          *
  *                   Hydraulic and Water Quality                  *
  *                   Analysis for Pipe Networks                   *
  *                         Version 2.2                            *
  ******************************************************************
  
  Analysis begun Fri Sep  8 13:19:59 2023

   
  Node Results:
  ----------------------------------------------
                     Demand      Head  Pressure
  Node                 m3/h         m         m
  ----------------------------------------------
  3661                 0.00    428.97     50.83
  482                  0.00    428.68     82.68
  661                  0.00    422.67     92.67
  6610                 0.00    428.61     68.61
  6611                 0.00    426.98     91.98
  6612                 0.00    428.61     66.24
  6613                 0.00    425.86     70.86
  6615                 0.00    423.61     84.61
  6616                 0.00    423.21     62.21
  6617                 0.00    423.34     80.34
  6618                 0.00    423.65     75.65
  662                  0.00    428.78    100.78
  6620                 0.00    422.99    114.99
  6621                 0.00    422.99     94.99
  6622                 0.00    422.99     85.99
  6623                 0.00    422.99     71.99
  6624                 0.00    423.00     71.00
  6625                 0.00    385.89     73.89
  6626                 0.00    422.40    101.40
  6627                 0.00    422.30    101.30
  6628                 0.00    428.75     89.75
  6629                 0.00    428.75     88.75
  663                  0.00    428.63     87.63
  6630                 0.00    428.35     88.55
  6632                 0.00    428.77     88.77
  6633                 0.00    428.92     66.28
  6634                 0.00    428.93     57.93
  6635                 0.00    428.95     76.95
  6636                 0.00    428.95     72.95
  6637                 0.00    428.94     61.94
  6639                 0.00    428.61     68.61
  664                  0.00    428.41     80.41
  6640                 0.00    428.61     68.61
  6641                 0.00    428.61     69.93
  6642                 0.00    428.61     72.61
  6643                 0.00    428.61     76.61
  6644                 0.00    428.61     76.61
  6645                 0.00    428.61     78.61
  6646                 0.00    428.41     81.39
  6648                 0.00    428.41     82.40
  6649                 0.00    428.20     89.20
  665                  0.00    428.27     83.27
  666                  0.00    428.75     88.75
  6665                 0.00    428.94     63.80
  6666                 0.00    428.94     61.28
  667                  0.00    428.61     76.61
  668                  0.00    422.67     92.67
  669                  0.00    428.75     83.75
  1                    0.00    428.85     98.85
  10                  69.00    428.19     76.19
  100                  0.00    428.61     73.61
  100B                 0.00    428.61     70.61
  101                117.00    425.46     72.46
  103                  0.00    424.88     85.88
  104                160.00    424.71     85.71
  105                  0.00    425.86     70.86
  106                 55.00    425.78     70.78
  107                  0.00    423.61     84.61
  108                 64.00    422.62     84.06
  109                  0.00    423.39     86.39
  11B                  0.00    428.19     85.19
  110                  0.00    423.65     77.65
  111                  0.00    423.61     84.83
  112                  0.00    423.63     81.63
  113                  0.00    423.55    100.55
  114                 53.00    423.41     75.41
  115                  0.00    423.38     77.38
  116                  0.00    423.40     78.40
  117                  0.00    423.34     80.34
  118                  0.00    423.02     84.02
  119                 40.00    420.25     97.44
  12                   0.00    427.78     97.44
  121                  0.00    423.47     74.67
  122                  0.00    423.40     75.50
  123                  0.00    423.40     77.40
  125                  0.00    423.46     72.46
  126                 61.00    423.36     75.36
  127                  0.00    423.36     80.03
  128                  0.00    423.19     61.19
  129                  0.00    422.84     66.84
  130                159.00    422.68     81.60
  130B                65.00    422.75     69.75
  132                  0.00    422.67     89.67
  134                 61.00    422.00    101.00
  135                  0.00    422.30    106.30
  137                  0.00    422.30    113.30
  139                  0.00    422.67     62.67
  14                   0.00    427.15     89.15
  140                  0.00    422.67     71.67
  141                  0.00    422.67     70.67
  142                  0.00    422.67     61.67
  143                  0.00    422.67     81.70
  144                 87.00    422.99     63.99
  146                  0.00    422.62     76.62
  147                  0.00    422.40    101.40
  148                 72.00    422.57     89.57
  149                  0.00    385.89     72.68
  15                   0.00    426.98     91.98
  150                101.00    385.29     77.22
  151                  0.00    385.06     79.82
  152                 66.00    383.27     73.25
  153                  0.00    383.88     73.88
  154                  0.00    422.99     97.99
  157                  0.00    422.99    119.99
  158A                 0.00    422.99    101.99
  158B                 0.00    422.99    101.99
  16B                133.00    427.24     93.24
  160                  0.00    428.94     61.94
  162                  0.00    428.94     60.94
  163                  0.00    428.94     54.94
  164                  0.00    428.94     69.28
  165                  0.00    428.94     67.64
  166                  0.00    428.94     67.93
  167                  0.00    428.94     58.30
  169                  0.00    428.94     62.44
  17A                  0.00    426.80     91.80
  170                  0.00    428.95     69.95
  17B                  0.00    426.62     91.62
  171                  0.00    428.95     76.95
  172                  0.00    428.95     88.95
  18B                215.00    421.08     96.08
  19                   0.00    428.92     70.92
  2                    0.00    428.79    102.79
  20                   0.00    428.97     64.97
  2002                 0.00    428.75     78.75
  2003                 0.00    428.75     78.75
  21                   0.00    423.95     62.35
  22                   0.00    423.95     62.35
  222                  0.00    423.87     73.87
  24                   0.00    423.81     79.81
  25                   0.00    423.74     78.74
  26                   0.00    423.65     75.65
  27                   0.00    423.67     73.67
  28                   0.00    423.56     73.56
  29                   0.00    423.26     67.26
  3                    0.00    428.71     88.36
  30                   0.00    423.22     62.22
  3002                 0.00    428.97     42.97
  3004                 0.00    428.97     42.97
  3005                 0.00    428.97     42.97
  3008                 0.00    428.97     43.97
  3012                 0.00    428.97     58.24
  3013                 0.00    428.97     64.04
  3016                 0.00    428.97     63.97
  3017                 0.00    428.97     46.97
  3018                 0.00    428.96     51.96
  3019                 0.00    428.97     59.58
  3020                 0.00    428.97     60.86
  3024                 0.00    428.97     64.03
  31                   0.00    423.08     65.29
  3152                 0.00    428.97     62.77
  32                   0.00    423.13     65.13
  34                  74.00    422.81     71.79
  35                   0.00    422.99     85.99
  36                   0.00    422.99     94.99
  39                   0.00    422.99    109.99
  41                   0.00    422.99    115.99
  46                   0.00    428.96     52.96
  47                   0.00    428.94     70.76
  48                   0.00    428.57     84.57
  49                  82.00    427.72     75.72
  5                    0.00    428.67     81.67
  52                   0.00    427.72     76.72
  53                 149.00    425.56     69.56
  54                   0.00    428.90     83.90
  55                   0.00    428.85     98.85
  56                   0.00    428.85     94.85
  58                   0.00    428.85     95.85
  59                   0.00    428.85     99.85
  6                    0.00    428.61     76.61
  60                   0.00    426.41     81.41
  61                  79.00    425.31     86.31
  62                   0.00    428.61     74.61
  64                   0.00    428.77     97.77
  65                   0.00    428.77     88.77
  66                   0.00    428.77     89.77
  67                   0.00    428.76     96.76
  68                   0.00    428.35     89.35
  69                  59.00    427.57     76.57
  7                   47.00    428.49     75.49
  70                   0.00    428.75     88.75
  71                   0.00    428.75     91.75
  72                   0.00    428.61     72.61
  73                   0.00    428.61     73.61
  77                   0.00    428.61     72.61
  78                   0.00    428.61     88.47
  79                  56.00    428.49     75.49
  8                   62.00    428.40     78.40
  80                   0.00    428.41     79.41
  81                   0.00    428.41     69.41
  82                   0.00    428.41     70.41
  85                   0.00    428.75     89.75
  86                   0.00    428.75     91.75
  87                   0.00    428.61     68.61
  88                   0.00    428.61     75.61
  89                   0.00    428.61     61.61
  90                   0.00    428.61     72.61
  91                   0.00    428.61     56.61
  92                   0.00    428.61     68.61
  91B                  0.00    428.61     68.61
  94                   0.00    428.20     89.20
  95                   0.00    428.04     85.04
  97                   0.00    427.94     96.94
  99                   0.00    428.61     78.61
  74                   0.00    428.61     69.90
  1074                 0.00    428.61     70.61
  11A                 61.00    427.89     84.89
  1011                 0.00    427.94     84.94
  4                    0.00    421.89    109.89
  9                    0.00    422.99    112.99
  0                -1344.00    429.00      0.00  Reservoir
  balsa             -903.00    423.95     -0.00  Reservoir
   
   
  Link Results:
  ----------------------------------------------
                       Flow  Velocity  Headloss
  Link                 m3/h       m/s    /1000m
  ----------------------------------------------
  TU1                 -0.00      0.00      0.00
  TU10                 0.00      0.00      0.00
  TU100               59.00      0.13      0.04
  TU101               59.00      0.08      0.02
  TU102                0.00      0.00      0.00
  TU103               59.00      0.08      0.02
  TU104               59.00      0.08      0.02
  TU105              975.00      0.43      0.14
  TU106              975.00      0.43      0.14
  TU107                0.00      0.00      0.00
  TU108             1054.00      0.46      0.16
  TU109             1113.00      0.49      0.18
  TU11               172.00      0.79      1.78
  TU110             1113.00      0.49      0.18
  TU111               -0.00      0.00      0.00
  TU112               -0.00      0.00      0.00
  TU113                0.00      0.00      0.00
  TU114                0.00      0.00      0.00
  TU115             1113.00      0.39      0.11
  TU116             1113.00      0.39      0.11
  TU117              149.00      1.61     11.01
  TU118                0.00      0.00      0.00
  TU119             1113.00      0.39      0.11
  TU12               160.00      1.83     14.39
  TU120             1262.00      0.45      0.14
  TU121                0.00      0.00      0.00
  TU122                0.00      0.00      0.00
  TU123               -0.00      0.00      0.00
  TU124                0.00      0.00      0.00
  TU125               82.00      0.60      1.44
  TU126               82.00      0.38      0.46
  TU127               82.00      0.38      0.46
  TU128                0.00      0.00      0.00
  TU129                0.00      0.00      0.00
  TU13               160.00      1.17      4.85
  TU130               -0.00      0.00      0.00
  TU131               -0.00      0.00      0.00
  TU132                0.00      0.00      0.00
  TU133               -0.00      0.00      0.00
  TU134               -0.00      0.00      0.00
  TU135               -0.00      0.00      0.00
  TU136                0.00      0.00      0.00
  TU137               82.00      0.12      0.03
  TU138               82.00      0.12      0.03
  TU139               82.00      0.08      0.01
  TU14               332.00      0.73      1.01
  TU140               82.00      0.08      0.01
  TU141                0.00      0.00      0.00
  TU142                0.00      0.00      0.00
  TU143               -0.00      0.00      0.00
  TU144               -0.00      0.00      0.00
  TU145               -0.00      0.00      0.00
  TU146               -0.00      0.00      0.00
  TU147               -0.00      0.00      0.00
  TU148                0.00      0.00      0.00
  TU149               -0.00      0.00      0.00
  TU15                -0.00      0.00      0.00
  TU150               -0.00      0.00      0.00
  TU151               -0.00      0.00      0.00
  TU152               -0.00      0.00      0.00
  TU15301              0.00      0.00      0.00
  TU15302              0.00      0.00      0.00
  TU1074               0.00      0.00      0.00
  TU154               -0.00      0.00      0.00
  TU155               69.00      1.16      7.90
  TU156               69.00      0.07      0.01
  TU157               69.00      0.07      0.01
  TU158                0.00      0.00      0.00
  TU159               69.00      0.07      0.01
  TU16              1344.00      0.24      0.03
  TU160               62.00      1.10      7.44
  TU161              131.00      0.13      0.03
  TU162              844.00      0.61      0.37
  TU163              741.00      0.53      0.29
  TU164              797.00      0.58      0.33
  TU166               -0.00      0.00      0.00
  TU167               -0.00      0.00      0.00
  TU168                0.00      0.00      0.00
  TU169                0.00      0.00      0.00
  TU17                64.00      1.14      7.88
  TU170                0.00      0.00      0.00
  TU171              741.00      0.53      0.29
  TU17201             61.00      0.80      3.47
  TU17202              0.00      0.00      0.00
  TU1011A             61.00      0.80      3.47
  TU173               61.00      0.45      0.84
  TU174               -0.00      0.00      0.00
  TU175               61.00      0.28      0.27
  TU176              680.00      0.67      0.53
  TU177              680.00      0.67      0.53
  TU178              680.00      0.67      0.53
  TU179              215.00      0.61      0.84
  TU18                64.00      0.73      2.69
  TU180              215.00      0.61      0.84
  TU181              215.00      1.81     11.79
  TU182              215.00      0.98      2.67
  TU183               79.00      0.90      3.95
  TU184                0.00      0.00      0.00
  TU185              154.00      0.34      0.25
  TU186               -0.00      0.00      0.00
  TU187               -0.00      0.00      0.00
  TU188              839.00      0.61      0.37
  TU189              839.00      0.61      0.37
  TU19                 0.00      0.00      0.00
  TU190               66.00      0.87      4.01
  TU191               79.00      1.41     11.59
  TU192                0.00      0.00      0.00
  TU193                0.00      0.00      0.00
  TU194               -0.00      0.00      0.00
  TU195                0.00      0.00      0.00
  TU196                0.00      0.00      0.00
  TU197               -0.00      0.00      0.00
  TU198                0.00      0.00      0.00
  TU199                0.00      0.00      0.00
  TU2                  0.00      0.00      0.00
  TU20                64.00      0.47      0.92
  TU200               -0.00      0.00      0.00
  TU201                0.00      0.00      0.00
  TU203                0.00      0.00      0.00
  TU204                0.00      0.00      0.00
  TU205                0.00      0.00      0.00
  TU21                66.00      0.56      1.36
  TU22               903.00      0.50      0.22
  TU23               903.00      0.50      0.22
  TU24               903.00      0.50      0.22
  TU25               903.00      0.50      0.12
  TU26               685.00      0.67      0.54
  TU27               685.00      0.67      0.53
  TU28               685.00      0.67      0.53
  TU29               685.00      0.67      0.53
  TU3                  0.00      0.00      0.00
  TU30                40.00      0.82      4.79
  TU31                40.00      0.46      1.15
  TU32                 0.00      0.00      0.00
  TU33                40.00      0.18      0.13
  TU34                40.00      0.18      0.13
  TU35                 0.00      0.00      0.00
  TU36                 0.00      0.00      0.00
  TU37                40.00      0.11      0.04
  TU38                93.00      0.26      0.18
  TU39                -0.00      0.00      0.00
  TU4                 -0.00      0.00      0.00
  TU40                61.00      0.45      0.84
  TU41               154.00      0.34      0.25
  TU42                 0.00      0.00      0.00
  TU43               154.00      0.22      0.09
  TU44               154.00      0.22      0.09
  TU45               154.00      0.22      0.09
  TU46               154.00      0.22      0.09
  TU47                -0.00      0.00      0.00
  TU48                 0.00      0.00      0.00
  TU49                 0.00      0.00      0.00
  TU5                  0.00      0.00      0.00
  TU50                 0.00      0.00      0.00
  TU52                 0.00      0.00      0.00
  TU53                 0.00      0.00      0.00
  TU54                 0.00      0.00      0.00
  TU55                 0.00      0.00      0.00
  TU56                 0.00      0.00      0.00
  TU57                 0.00      0.00      0.00
  TU58                74.00      1.32     10.28
  TU59                74.00      0.21      0.12
  TU6                154.00      0.22      0.09
  TU61                 0.00      0.00      0.00
  TU62               167.00      0.89      2.42
  TU63                 0.00      0.00      0.00
  TU65                 0.00      0.00      0.00
  TU66               167.00      0.55      0.77
  TU67               239.00      0.68      1.02
  TU68               239.00      0.68      1.02
  TU69               313.00      0.44      0.31
  TU7                  0.00      0.00      0.00
  TU70               313.00      0.44      0.31
  TU71               313.00      0.44      0.31
  TU72                61.00      0.13      0.05
  TU73               220.00      0.49      0.48
  TU74               285.00      0.63      0.77
  TU75               285.00      0.63      0.77
  TU76               372.00      0.82      1.25
  TU77               372.00      0.82      1.25
  TU78                 0.00      0.00      0.00
  TU79                 0.00      0.00      0.00
  TU8                117.00      1.26      7.06
  TU80                61.00      1.26     10.33
  TU81                61.00      0.51      1.18
  TU82                -0.00      0.00      0.00
  TU83                 0.00      0.00      0.00
  TU84                 0.00      0.00      0.00
  TU85                 0.00      0.00      0.00
  TU86                 0.00      0.00      0.00
  TU87                 0.00      0.00      0.00
  TU88                 0.00      0.00      0.00
  TU89                 0.00      0.00      0.00
  TU9                 55.00      0.93      5.22
  TU90                 0.00      0.00      0.00
  TU91                -0.00      0.00      0.00
  TU92                -0.00      0.00      0.00
  TU93                 0.00      0.00      0.00
  TU94                 0.00      0.00      0.00
  TU95                 0.00      0.00      0.00
  TU96                 0.00      0.00      0.00
  TU97                59.00      1.05      6.80
  TU98                59.00      0.67      2.32
  TU99                59.00      0.13      0.04
  TU4000               0.00      0.00      0.00
  TU60                66.00      1.36     11.93
  TU64               167.00      0.89      2.42
  TU51                 0.00      0.00      0.00
  2                  167.00      3.44     36.00  PBV
  3                    0.00      0.00      0.00  PBV
   
  Analysis ended Fri Sep  8 13:20:00 2023
