  Page 1                                    Fri Sep  8 13:21:46 2023

  ******************************************************************
  *                           E P A N E T                          *
  *                   Hydraulic and Water Quality                  *
  *                   Analysis for Pipe Networks                   *
  *                         Version 2.2                            *
  ******************************************************************
  
  Analysis begun Fri Sep  8 13:21:46 2023

   
  Node Results:
  ----------------------------------------------
                     Demand      Head  Pressure
  Node                 m3/h         m         m
  ----------------------------------------------
  3661                 0.00    428.77     50.63
  482                  0.00    427.13     81.13
  661                  0.00    420.81     90.81
  6610                 0.00    425.06     65.06
  6611                 0.00    422.66     87.66
  6612                 0.00    425.58     63.21
  6613                 0.00    422.82     67.82
  6615                 0.00    421.97     82.97
  6616                 0.00    421.85     60.85
  6617                 0.00    420.00     77.00
  6618                 0.00    422.29     74.29
  662                  0.00    427.56     99.56
  6620                 0.00    420.79    112.79
  6621                 0.00    421.42     93.42
  6622                 0.00    421.56     84.56
  6623                 0.00    421.71     70.71
  6624                 0.00    421.73     69.73
  6625                 0.00    385.57     73.57
  6626                 0.00    421.66    100.66
  6627                 0.00    418.19     97.19
  6628                 0.00    425.16     86.16
  6629                 0.00    425.96     85.96
  663                  0.00    426.80     85.80
  6630                 0.00    426.03     86.23
  6632                 0.00    426.86     86.86
  6633                 0.00    428.50     65.86
  6634                 0.00    428.59     57.59
  6635                 0.00    428.39     76.39
  6636                 0.00    428.39     72.39
  6637                 0.00    428.15     61.15
  6639                 0.00    425.40     65.40
  664                  0.00    426.17     78.17
  6640                 0.00    425.33     65.33
  6641                 0.00    425.45     66.77
  6642                 0.00    425.45     69.45
  6643                 0.00    425.95     73.95
  6644                 0.00    426.18     74.18
  6645                 0.00    426.26     76.26
  6646                 0.00    423.10     76.08
  6648                 0.00    423.28     77.27
  6649                 0.00    425.02     86.02
  665                  0.00    425.81     80.81
  666                  0.00    426.40     86.40
  6665                 0.00    427.05     61.91
  6666                 0.00    427.85     60.19
  667                  0.00    426.15     74.16
  668                  0.00    420.80     90.80
  669                  0.00    425.79     80.79
  1                   89.00    428.04     98.04
  10                  60.00    425.63     73.63
  100                  0.00    425.45     70.45
  100B                 0.00    425.33     67.33
  101                 96.00    422.54     69.54
  103                 45.00    423.88     84.88
  104                  0.00    423.88     84.88
  105                 75.00    422.81     67.81
  106                  0.00    422.82     67.82
  107                 73.00    421.70     82.70
  108                 56.00    421.19     82.63
  109                  0.00    421.79     84.79
  11B                138.00    425.65     82.65
  110                  0.00    422.22     76.22
  111                  0.00    421.92     83.14
  112                  0.00    422.07     80.07
  113                  0.00    421.50     98.50
  114                  0.00    420.57     72.57
  115                 65.00    420.14     74.14
  116                  0.00    420.34     75.34
  117                  0.00    420.00     77.00
  118                 80.00    418.88     79.88
  119                  0.00    418.88     96.07
  12                   0.00    425.02     94.68
  121                 61.00    420.84     72.04
  122                 67.00    416.46     68.56
  123                  0.00    419.79     73.79
  125                  0.00    420.79     69.79
  126                 68.00    419.98     71.98
  127                132.00    418.45     75.12
  128                 66.00    421.82     59.82
  129                  0.00    421.38     65.38
  130                  0.00    421.05     79.97
  130B                 0.00    421.25     68.25
  132                 58.00    414.13     81.13
  134                 63.00    417.87     96.87
  135                 53.00    416.09    100.09
  137                 63.00    411.62    102.62
  139                 69.00    420.33     60.33
  14                  87.00    424.11     86.11
  140                  0.00    420.59     69.59
  141                  0.00    420.57     68.57
  142                  0.00    420.33     59.33
  143                 64.00    411.11     70.14
  144                  0.00    421.63     62.63
  146                  0.00    421.70     75.70
  147                  0.00    421.66    100.66
  148                  0.00    421.69     88.69
  149                  0.00    385.57     72.36
  15                 195.00    422.14     87.14
  150                  0.00    385.45     77.38
  151                  0.00    385.22     79.98
  152                 66.00    383.43     73.41
  153                  0.00    384.04     74.04
  154                  0.00    421.35     96.35
  157                  0.00    420.79    117.79
  158A                64.00    411.87     90.87
  158B                64.00    411.85     90.85
  16B                  0.00    424.18     90.18
  160                 58.00    428.11     61.11
  162                  0.00    427.99     59.99
  163                  0.00    427.85     53.85
  164                 58.00    427.54     67.88
  165                 61.00    427.05     65.75
  166                 91.00    427.05     66.04
  167                  0.00    427.05     56.41
  169                 69.00    427.29     60.79
  17A                147.00    422.18     87.18
  170                  0.00    428.28     69.28
  17B                  0.00    421.99     86.99
  171                  0.00    428.39     76.39
  172                  0.00    428.39     88.39
  18B                219.00    416.26     91.26
  19                   0.00    428.50     70.50
  2                    0.00    427.66    101.66
  20                   0.00    428.77     64.77
  2002                 0.00    425.79     75.79
  2003                 0.00    425.79     75.79
  21                  54.00    423.01     61.41
  22                   0.00    423.00     61.40
  222                 70.00    422.80     72.80
  24                   0.00    422.68     78.68
  25                   0.00    422.53     77.53
  26                   0.00    422.29     74.29
  27                   0.00    422.38     72.38
  28                  51.00    422.24     72.24
  29                  42.00    421.91     65.91
  3                    0.00    427.24     86.89
  30                   0.00    421.87     60.87
  3002                 0.00    428.77     42.77
  3004                 0.00    428.77     42.77
  3005                 0.00    428.77     42.77
  3008                 0.00    428.77     43.77
  3012                 0.00    428.77     58.04
  3013                 0.00    428.77     63.84
  3016                 0.00    428.77     63.77
  3017                 0.00    428.77     46.77
  3018                74.00    428.23     51.23
  3019                 0.00    428.77     59.38
  3020                 0.00    428.77     60.66
  3024                 0.00    428.77     63.83
  31                  57.00    421.77     63.98
  3152                 0.00    428.77     62.57
  32                   0.00    421.80     63.80
  34                   0.00    421.71     70.69
  35                   0.00    421.56     84.56
  36                   0.00    421.42     93.42
  39                   0.00    421.14    108.14
  41                   0.00    420.58    113.58
  46                   0.00    428.50     52.50
  47                   0.00    427.42     69.24
  48                   0.00    426.70     82.70
  49                  86.00    423.43     71.43
  5                    0.00    427.01     80.01
  52                  86.00    423.39     72.39
  53                   0.00    428.59     72.59
  54                   0.00    428.33     83.33
  55                   0.00    428.04     98.04
  56                   0.00    428.04     94.04
  58                   0.00    428.04     95.04
  59                   0.00    428.04     99.04
  6                    0.00    426.18     74.18
  60                   0.00    427.24     82.24
  61                   0.00    427.24     88.24
  62                   0.00    426.09     72.09
  64                  75.00    427.23     96.23
  65                  85.00    426.50     86.50
  66                  80.00    426.85     87.85
  67                 118.00    426.53     94.53
  68                   0.00    426.03     87.03
  69                  57.00    425.29     74.29
  7                    0.00    426.44     73.44
  70                 169.00    425.16     85.16
  71                  87.00    424.13     87.13
  72                  98.00    426.09     70.09
  73                 176.00    425.91     70.91
  77                   0.00    426.09     70.09
  78                   0.00    426.09     85.95
  79                  43.00    426.44     73.44
  8                   64.00    426.03     76.03
  80                   0.00    426.08     77.08
  81                  72.00    421.44     62.44
  82                 103.00    422.60     64.60
  85                   0.00    425.16     86.16
  86                   0.00    425.16     88.16
  87                 115.00    425.65     65.65
  88                  53.00    421.76     68.76
  89                  80.00    425.46     58.46
  90                   0.00    425.45     69.45
  91                   0.00    425.40     53.40
  92                   0.00    425.06     65.06
  91B                106.00    424.93     64.93
  94                   0.00    425.02     86.02
  95                   0.00    423.26     80.26
  97                 133.00    416.25     85.25
  99                 151.00    422.63     72.63
  74                  69.00    424.08     65.37
  1074                 0.00    425.88     67.88
  11A                 97.00    421.95     78.95
  1011                 0.00    422.06     79.06
  4                    0.00    421.57    109.57
  9                    0.00    420.79    110.79
  0                -3765.00    429.00      0.00  Reservoir
  balsa            -1506.00    423.01     -0.00  Reservoir
   
   
  Link Results:
  ----------------------------------------------
                       Flow  Velocity  Headloss
  Link                 m3/h       m/s    /1000m
  ----------------------------------------------
  TU1                 -0.00      0.00      0.00
  TU10                75.00      0.81      3.14
  TU100              431.00      0.95      1.63
  TU101              511.00      0.72      0.76
  TU102               85.00      1.51     13.25
  TU103              596.00      0.84      1.00
  TU104              671.00      0.95      1.25
  TU105             2422.00      1.06      0.76
  TU106             2422.00      1.06      0.76
  TU107                0.00      0.00      0.00
  TU108             2422.00      1.06      0.76
  TU109             3093.00      1.35      1.20
  TU11               171.00      0.78      1.76
  TU110             3093.00      1.35      1.20
  TU111               -0.00      0.00      0.00
  TU112               -0.00      0.00      0.00
  TU113                0.00      0.00      0.00
  TU114                0.00      0.00      0.00
  TU115             3182.00      1.13      0.75
  TU116             3182.00      1.13      0.75
  TU117               -0.00      0.00      0.00
  TU118                0.00      0.00      0.00
  TU119             3182.00      1.13      0.75
  TU12                 0.00      0.00      0.00
  TU120             3182.00      1.13      0.75
  TU121                0.00      0.00      0.00
  TU122                0.00      0.00      0.00
  TU123               -0.00      0.00      0.00
  TU124               86.00      0.98      4.61
  TU125              172.00      1.26      5.54
  TU126              172.00      0.79      1.78
  TU127              172.00      0.79      1.78
  TU128                0.00      0.00      0.00
  TU129                0.00      0.00      0.00
  TU13                45.00      0.33      0.49
  TU130               61.00      0.27      0.24
  TU131              152.00      0.66      1.26
  TU132               69.00      0.30      0.30
  TU133              221.00      0.96      2.49
  TU134              106.00      1.14      5.89
  TU135              279.00      0.62      0.74
  TU136              337.00      0.74      1.04
  TU137              509.00      0.72      0.75
  TU138              509.00      0.72      0.75
  TU139              509.00      0.50      0.31
  TU14               303.00      0.67      0.86
  TU140              583.00      0.57      0.40
  TU141                0.00      0.00      0.00
  TU142               98.00      0.26      0.18
  TU143               -0.00      0.00      0.00
  TU144               -0.00      0.00      0.00
  TU145              106.00      0.73      2.01
  TU146              106.00      0.46      0.66
  TU147              106.00      0.29      0.21
  TU148               -0.00      0.00      0.00
  TU149               -0.00      0.00      0.00
  TU15                -0.00      0.00      0.00
  TU150               -0.00      0.00      0.00
  TU151              106.00      0.15      0.04
  TU152              151.00      1.72     12.93
  TU15301            574.00      0.81      0.94
  TU15302            505.00      0.71      0.74
  TU1074              69.00      0.91      4.35
  TU154              750.00      0.74      0.63
  TU155               60.00      1.01      6.12
  TU156              810.00      0.80      0.73
  TU157              908.00      0.89      0.90
  TU158                0.00      0.00      0.00
  TU159              908.00      0.89      0.90
  TU16              3765.00      0.68      0.20
  TU160               64.00      1.14      7.88
  TU161              972.00      0.95      1.02
  TU162             1450.00      1.05      1.00
  TU163             1407.00      1.02      0.95
  TU164             1450.00      1.05      1.00
  TU166               72.00      1.48     13.99
  TU167              103.00      1.35      9.03
  TU168              103.00      1.35      9.03
  TU169              175.00      1.47      8.06
  TU17                56.00      1.00      6.18
  TU170              175.00      0.80      1.84
  TU171             1232.00      0.89      0.74
  TU17201            230.00      3.02     39.89
  TU17202            133.00      1.75     14.45
  TU1011A             97.00      1.28      8.09
  TU173              230.00      1.68      9.45
  TU174               -0.00      0.00      0.00
  TU175              230.00      1.05      3.03
  TU176              864.00      0.85      0.82
  TU177             1002.00      0.98      1.07
  TU178              864.00      0.85      0.82
  TU179              561.00      1.59      4.88
  TU18                56.00      0.64      2.11
  TU180              366.00      1.04      2.22
  TU181              219.00      1.84     12.19
  TU182              219.00      1.00      2.77
  TU183                0.00      0.00      0.00
  TU184                0.00      0.00      0.00
  TU185              473.00      1.05      1.94
  TU186              279.00      0.75      1.20
  TU187              279.00      0.62      0.74
  TU188             1253.00      0.90      0.77
  TU189             1253.00      0.90      0.77
  TU19                73.00      1.30     10.03
  TU190               66.00      0.87      4.01
  TU191                0.00      0.00      0.00
  TU192                0.00      0.00      0.00
  TU193                0.00      0.00      0.00
  TU194               -0.00      0.00      0.00
  TU195                0.00      0.00      0.00
  TU196                0.00      0.00      0.00
  TU197               -0.00      0.00      0.00
  TU198                0.00      0.00      0.00
  TU199                0.00      0.00      0.00
  TU2                195.00      2.23     20.75
  TU20               129.00      0.94      3.27
  TU200               -0.00      0.00      0.00
  TU201                0.00      0.00      0.00
  TU203               74.00      1.24      8.97
  TU204                0.00      0.00      0.00
  TU205                0.00      0.00      0.00
  TU21                66.00      0.56      1.36
  TU22              1382.00      0.76      0.48
  TU23              1452.00      0.80      0.52
  TU24              1452.00      0.80      0.53
  TU25              1506.00      0.83      0.50
  TU26               687.00      0.67      0.54
  TU27               687.00      0.67      0.54
  TU28               729.00      0.72      0.60
  TU29               780.00      0.77      0.68
  TU3                 53.00      0.89      4.88
  TU30                 0.00      0.00      0.00
  TU31                80.00      0.91      4.04
  TU32                 0.00      0.00      0.00
  TU33                80.00      0.37      0.44
  TU34               145.00      0.66      1.30
  TU35                67.00      1.19      8.57
  TU36                67.00      0.76      2.93
  TU37               212.00      0.60      0.82
  TU38               212.00      0.60      0.82
  TU39               132.00      1.51     10.10
  TU4                337.00      0.48      0.35
  TU40               200.00      1.46      7.31
  TU41               412.00      0.91      1.51
  TU42                 0.00      0.00      0.00
  TU43               473.00      0.67      0.66
  TU44               473.00      0.67      0.66
  TU45               473.00      0.67      0.66
  TU46               473.00      0.67      0.66
  TU47                -0.00      0.00      0.00
  TU48               128.00      1.68     13.46
  TU49               128.00      1.08      4.54
  TU5                390.00      0.55      0.46
  TU50                 0.00      0.00      0.00
  TU52               128.00      0.42      0.47
  TU53               128.00      0.42      0.47
  TU54                 0.00      0.00      0.00
  TU55               128.00      0.42      0.47
  TU56                 0.00      0.00      0.00
  TU57               128.00      0.36      0.33
  TU58                 0.00      0.00      0.00
  TU59               128.00      0.36      0.33
  TU6                473.00      0.67      0.66
  TU61                 0.00      0.00      0.00
  TU62                66.00      0.35      0.45
  TU63                 0.00      0.00      0.00
  TU65                 0.00      0.00      0.00
  TU66                66.00      0.22      0.14
  TU67                66.00      0.19      0.10
  TU68                66.00      0.19      0.10
  TU69               194.00      0.27      0.13
  TU7                  0.00      0.00      0.00
  TU70               251.00      0.36      0.21
  TU71               251.00      0.36      0.21
  TU72               370.00      0.82      1.24
  TU73               370.00      0.82      1.24
  TU74               370.00      0.82      1.24
  TU75               370.00      0.82      1.24
  TU76               370.00      0.82      1.24
  TU77               436.00      0.96      1.67
  TU78                63.00      1.30     10.95
  TU79               116.00      1.53     11.23
  TU8                 96.00      1.04      4.92
  TU80                63.00      1.30     10.95
  TU81               179.00      1.51      8.41
  TU82                64.00      1.14      7.88
  TU83               122.00      1.60     12.33
  TU84                 0.00      0.00      0.00
  TU85                69.00      0.50      1.05
  TU86                69.00      0.32      0.34
  TU87                69.00      0.37      0.49
  TU88               191.00      0.42      0.37
  TU89                 0.00      0.00      0.00
  TU9                  0.00      0.00      0.00
  TU90                 0.00      0.00      0.00
  TU91                -0.00      0.00      0.00
  TU92               169.00      0.77      1.72
  TU93               169.00      0.48      0.54
  TU94                87.00      0.99      4.71
  TU95               256.00      0.73      1.16
  TU96                 0.00      0.00      0.00
  TU97                57.00      1.01      6.38
  TU98                57.00      0.65      2.18
  TU99               313.00      0.69      0.91
  TU4000              64.00      0.84      3.79
  TU60                66.00      1.36     11.93
  TU64                66.00      0.35      0.45
  TU51               128.00      0.68      1.49
  2                   66.00      1.36     36.00
  3                  128.00      2.64      0.00
   
  Analysis ended Fri Sep  8 13:21:46 2023
