  Page 1                                    Fri Sep  8 13:07:47 2023

  ******************************************************************
  *                           E P A N E T                          *
  *                   Hydraulic and Water Quality                  *
  *                   Analysis for Pipe Networks                   *
  *                         Version 2.2                            *
  ******************************************************************
  
  Analysis begun Fri Sep  8 13:07:47 2023

   
  Node Results:
  ----------------------------------------------
                     Demand      Head  Pressure
  Node                 m3/h         m         m
  ----------------------------------------------
  3661                 0.00    428.99     50.85
  482                  0.00    428.98     82.98
  661                  0.00    424.80     94.80
  6610                 0.00    428.76     68.76
  6611                 0.00    427.15     92.15
  6612                 0.00    428.86     66.49
  6613                 0.00    428.02     73.02
  6615                 0.00    425.36     86.36
  6616                 0.00    425.07     64.07
  6617                 0.00    425.14     82.14
  6618                 0.00    425.28     77.28
  662                  0.00    428.94    100.94
  6620                 0.00    424.99    116.99
  6621                 0.00    424.99     96.99
  6622                 0.00    424.99     87.99
  6623                 0.00    424.99     73.99
  6624                 0.00    425.00     73.00
  6625                 0.00    388.86     76.86
  6626                 0.00    424.86    103.86
  6627                 0.00    424.80    103.80
  6628                 0.00    428.94     89.94
  6629                 0.00    428.94     88.94
  663                  0.00    428.88     87.88
  6630                 0.00    428.94     89.14
  6632                 0.00    428.94     88.94
  6633                 0.00    428.98     66.34
  6634                 0.00    428.98     57.98
  6635                 0.00    428.98     76.98
  6636                 0.00    428.98     72.98
  6637                 0.00    428.98     61.98
  6639                 0.00    428.80     68.80
  664                  0.00    428.79     80.79
  6640                 0.00    428.76     68.76
  6641                 0.00    428.84     70.16
  6642                 0.00    428.84     72.84
  6643                 0.00    428.87     76.87
  6644                 0.00    428.87     76.87
  6645                 0.00    428.87     78.87
  6646                 0.00    428.79     81.77
  6648                 0.00    428.79     82.78
  6649                 0.00    428.72     89.72
  665                  0.00    428.72     83.72
  666                  0.00    428.94     88.94
  6665                 0.00    428.97     63.83
  6666                 0.00    428.97     61.31
  667                  0.00    428.87     76.87
  668                  0.00    424.80     94.80
  669                  0.00    428.94     83.94
  1                    0.00    428.96     98.96
  10                   0.00    428.87     76.87
  100                  0.00    428.84     73.84
  100B                83.00    428.27     70.27
  101                 48.00    427.94     74.94
  103                  0.00    428.15     89.15
  104                  0.00    428.15     89.15
  105                  0.00    428.02     73.02
  106                  0.00    428.02     73.02
  107                  0.00    425.36     86.36
  108                  0.00    425.36     86.80
  109                  0.00    425.36     88.36
  11B                  0.00    428.68     85.68
  110                  0.00    425.27     79.27
  111                 63.00    425.25     86.47
  112                  0.00    425.26     83.26
  113                  0.00    425.24    102.24
  114                  0.00    425.20     77.20
  115                 58.00    425.14     79.14
  116                  0.00    425.18     80.18
  117                  0.00    425.14     82.14
  118                  0.00    425.14     86.14
  119                  0.00    425.14    102.33
  12                   0.00    428.45     98.11
  121                  0.00    425.22     76.42
  122                  0.00    425.18     77.28
  123                  0.00    425.18     79.18
  125                  0.00    425.22     74.22
  126                  0.00    425.22     77.22
  127                  0.00    425.22     81.89
  128                  0.00    425.06     63.06
  129                  0.00    424.87     68.87
  130                122.00    424.80     83.72
  130B                72.00    424.83     71.83
  132                  0.00    424.80     91.80
  134                  0.00    424.80    103.80
  135                  0.00    424.80    108.80
  137                  0.00    424.80    115.80
  139                  0.00    424.80     64.80
  14                   0.00    428.15     90.15
  140                  0.00    424.80     73.80
  141                  0.00    424.80     72.80
  142                  0.00    424.80     63.80
  143                  0.00    424.80     83.83
  144                 81.00    424.95     65.95
  146                  0.00    424.89     78.89
  147                 51.00    424.66    103.66
  148                 68.00    424.88     91.88
  149                  0.00    388.86     75.65
  15                   0.00    427.15     92.15
  150                  0.00    388.86     80.79
  151                  0.00    388.86     83.62
  152                  0.00    388.86     78.84
  153                  0.00    388.86     78.86
  154                  0.00    424.99     99.99
  157                  0.00    424.99    121.99
  158A                 0.00    424.99    103.99
  158B                 0.00    424.99    103.99
  16B                  0.00    428.15     94.15
  160                  0.00    428.98     61.98
  162                 62.00    428.97     60.97
  163                  0.00    428.97     54.97
  164                  0.00    428.97     69.31
  165                  0.00    428.97     67.67
  166                  0.00    428.97     67.96
  167                  0.00    428.97     58.33
  169                  0.00    428.97     62.47
  17A                232.00    426.45     91.45
  170                  0.00    428.98     69.98
  17B                  0.00    426.27     91.27
  171                  0.00    428.98     76.98
  172                  0.00    428.98     88.98
  18B                215.00    420.73     95.73
  19                   0.00    428.98     70.98
  2                    0.00    428.94    102.94
  20                   0.00    428.99     64.99
  2002                 0.00    428.94     78.94
  2003                 0.00    428.94     78.94
  21                   0.00    425.42     63.82
  22                   0.00    425.42     63.82
  222                  0.00    425.38     75.38
  24                   0.00    425.36     81.36
  25                   0.00    425.32     80.32
  26                   0.00    425.28     77.28
  27                   0.00    425.29     75.29
  28                   0.00    425.24     75.24
  29                   0.00    425.10     69.10
  3                    0.00    428.91     88.56
  30                   0.00    425.08     64.08
  3002                 0.00    428.99     42.99
  3004                 0.00    428.99     42.99
  3005                 0.00    428.99     42.99
  3008                 0.00    428.99     43.99
  3012                 0.00    428.99     58.26
  3013                 0.00    428.99     64.06
  3016                 0.00    428.99     63.99
  3017                 0.00    428.99     46.99
  3018                 0.00    428.99     51.99
  3019                 0.00    428.99     59.60
  3020                 0.00    428.99     60.88
  3024                 0.00    428.99     64.05
  31                   0.00    425.03     67.24
  3152                 0.00    428.99     62.79
  32                   0.00    425.05     67.05
  34                  56.00    424.88     73.86
  35                   0.00    424.99     87.99
  36                   0.00    424.99     96.99
  39                   0.00    424.99    111.99
  41                   0.00    424.99    117.99
  46                   0.00    428.99     52.99
  47                   0.00    428.97     70.79
  48                   0.00    428.98     84.98
  49                   0.00    428.98     76.98
  5                    0.00    428.90     81.90
  52                   0.00    428.98     77.98
  53                   0.00    428.98     72.98
  54                   0.00    428.97     83.97
  55                   0.00    428.96     98.96
  56                   0.00    428.96     94.96
  58                   0.00    428.96     95.96
  59                   0.00    428.96     99.96
  6                    0.00    428.87     76.87
  60                   0.00    428.91     83.91
  61                   0.00    428.91     89.91
  62                   0.00    428.87     74.87
  64                   0.00    428.94     97.94
  65                   0.00    428.94     88.94
  66                   0.00    428.94     89.94
  67                   0.00    428.94     96.94
  68                   0.00    428.94     89.94
  69                   0.00    428.94     77.94
  7                    0.00    428.83     75.83
  70                   0.00    428.94     88.94
  71                   0.00    428.94     91.94
  72                   0.00    428.87     72.87
  73                   0.00    428.87     73.87
  77                   0.00    428.87     72.87
  78                   0.00    428.87     88.73
  79                   0.00    428.83     75.83
  8                    0.00    428.87     78.87
  80                   0.00    428.79     79.79
  81                   0.00    428.79     69.79
  82                   0.00    428.79     70.79
  85                   0.00    428.94     89.94
  86                   0.00    428.94     91.94
  87                   0.00    428.86     68.86
  88                   0.00    428.86     75.86
  89                   0.00    428.85     61.85
  90                   0.00    428.84     72.84
  91                   0.00    428.80     56.80
  92                   0.00    428.76     68.76
  91B                  0.00    428.76     68.76
  94                   0.00    428.72     89.72
  95                   0.00    428.72     85.72
  97                   0.00    428.72     97.72
  99                   0.00    428.85     78.85
  74                   0.00    428.87     70.16
  1074                 0.00    428.87     70.87
  11A                  0.00    428.72     85.72
  1011                 0.00    428.72     85.72
  4                    0.00    424.86    112.86
  9                    0.00    424.99    114.99
  0                 -640.00    429.00      0.00  Reservoir
  balsa             -571.00    425.42     -0.00  Reservoir
   
   
  Link Results:
  ----------------------------------------------
                       Flow  Velocity  Headloss
  Link                 m3/h       m/s    /1000m
  ----------------------------------------------
  TU1                 -0.00      0.00      0.00
  TU10                 0.00      0.00      0.00
  TU100                0.00      0.00      0.00
  TU101               -0.00      0.00      0.00
  TU102                0.00      0.00      0.00
  TU103                0.00      0.00      0.00
  TU104                0.00      0.00      0.00
  TU105              578.00      0.25      0.06
  TU106              578.00      0.25      0.06
  TU107                0.00      0.00      0.00
  TU108              578.00      0.25      0.06
  TU109              578.00      0.25      0.06
  TU11                48.00      0.22      0.18
  TU110              578.00      0.25      0.06
  TU111                0.00      0.00      0.00
  TU112               -0.00      0.00      0.00
  TU113                0.00      0.00      0.00
  TU114                0.00      0.00      0.00
  TU115              578.00      0.20      0.03
  TU116              578.00      0.20      0.03
  TU117               -0.00      0.00      0.00
  TU118                0.00      0.00      0.00
  TU119              578.00      0.20      0.03
  TU12                 0.00      0.00      0.00
  TU120              578.00      0.20      0.03
  TU121                0.00      0.00      0.00
  TU122                0.00      0.00      0.00
  TU123               -0.00      0.00      0.00
  TU124                0.00      0.00      0.00
  TU125               -0.00      0.00      0.00
  TU126               -0.00      0.00      0.00
  TU127               -0.00      0.00      0.00
  TU128                0.00      0.00      0.00
  TU129                0.00      0.00      0.00
  TU13                 0.00      0.00      0.00
  TU130               -0.00      0.00      0.00
  TU131               -0.00      0.00      0.00
  TU132                0.00      0.00      0.00
  TU133               -0.00      0.00      0.00
  TU134               -0.00      0.00      0.00
  TU135               62.00      0.14      0.05
  TU136               62.00      0.14      0.05
  TU137               62.00      0.09      0.02
  TU138               62.00      0.09      0.02
  TU139               62.00      0.06      0.01
  TU14                48.00      0.11      0.03
  TU140               62.00      0.06      0.01
  TU141                0.00      0.00      0.00
  TU142                0.00      0.00      0.00
  TU143               -0.00      0.00      0.00
  TU144               83.00      0.90      3.77
  TU145               -0.00      0.00      0.00
  TU146               83.00      0.36      0.42
  TU147               83.00      0.22      0.13
  TU148               -0.00      0.00      0.00
  TU149               -0.00      0.00      0.00
  TU15                -0.00      0.00      0.00
  TU150               -0.00      0.00      0.00
  TU151               83.00      0.12      0.03
  TU152               -0.00      0.00      0.00
  TU15301             83.00      0.12      0.03
  TU15302             83.00      0.12      0.03
  TU1074               0.00      0.00      0.00
  TU154               83.00      0.08      0.01
  TU155               -0.00      0.00      0.00
  TU156               83.00      0.08      0.01
  TU157               83.00      0.08      0.01
  TU158                0.00      0.00      0.00
  TU159               83.00      0.08      0.01
  TU16               640.00      0.12      0.01
  TU160                0.00      0.00      0.00
  TU161               83.00      0.08      0.01
  TU162              495.00      0.36      0.14
  TU163              495.00      0.36      0.14
  TU164              495.00      0.36      0.14
  TU166               -0.00      0.00      0.00
  TU167               -0.00      0.00      0.00
  TU168                0.00      0.00      0.00
  TU169                0.00      0.00      0.00
  TU17                -0.00      0.00      0.00
  TU170                0.00      0.00      0.00
  TU171              495.00      0.36      0.14
  TU17201             -0.00      0.00      0.00
  TU17202              0.00      0.00      0.00
  TU1011A             -0.00      0.00      0.00
  TU173               -0.00      0.00      0.00
  TU174               -0.00      0.00      0.00
  TU175               -0.00      0.00      0.00
  TU176              495.00      0.49      0.30
  TU177              495.00      0.49      0.29
  TU178              495.00      0.49      0.30
  TU179              447.00      1.27      3.21
  TU18                 0.00      0.00      0.00
  TU180              447.00      1.27      3.21
  TU181              215.00      1.81     11.79
  TU182              215.00      0.98      2.67
  TU183                0.00      0.00      0.00
  TU184                0.00      0.00      0.00
  TU185               58.00      0.13      0.04
  TU186               -0.00      0.00      0.00
  TU187               -0.00      0.00      0.00
  TU188              571.00      0.41      0.18
  TU189              571.00      0.41      0.18
  TU19                 0.00      0.00      0.00
  TU190               -0.00      0.00      0.00
  TU191               -0.00      0.00      0.00
  TU192                0.00      0.00      0.00
  TU193                0.00      0.00      0.00
  TU194               -0.00      0.00      0.00
  TU195                0.00      0.00      0.00
  TU196                0.00      0.00      0.00
  TU197               -0.00      0.00      0.00
  TU198                0.00      0.00      0.00
  TU199                0.00      0.00      0.00
  TU2                  0.00      0.00      0.00
  TU20                -0.00      0.00      0.00
  TU200               -0.00      0.00      0.00
  TU201                0.00      0.00      0.00
  TU203                0.00      0.00      0.00
  TU204                0.00      0.00      0.00
  TU205                0.00      0.00      0.00
  TU21                -0.00      0.00      0.00
  TU22               571.00      0.32      0.10
  TU23               571.00      0.32      0.10
  TU24               571.00      0.32      0.10
  TU25               571.00      0.32      0.00
  TU26               450.00      0.44      0.25
  TU27               450.00      0.44      0.25
  TU28               450.00      0.44      0.25
  TU29               450.00      0.44      0.25
  TU3                  0.00      0.00      0.00
  TU30                 0.00      0.00      0.00
  TU31                 0.00      0.00      0.00
  TU32                 0.00      0.00      0.00
  TU33                 0.00      0.00      0.00
  TU34                58.00      0.27      0.25
  TU35                 0.00      0.00      0.00
  TU36                 0.00      0.00      0.00
  TU37                58.00      0.16      0.08
  TU38                58.00      0.16      0.08
  TU39                -0.00      0.00      0.00
  TU4                 83.00      0.12      0.03
  TU40                -0.00      0.00      0.00
  TU41                58.00      0.13      0.04
  TU42                 0.00      0.00      0.00
  TU43               121.00      0.17      0.06
  TU44               121.00      0.17      0.06
  TU45               121.00      0.17      0.06
  TU46               121.00      0.17      0.06
  TU47                -0.00      0.00      0.00
  TU48                 0.00      0.00      0.00
  TU49                 0.00      0.00      0.00
  TU5                 83.00      0.12      0.03
  TU50                 0.00      0.00      0.00
  TU52                 0.00      0.00      0.00
  TU53                 0.00      0.00      0.00
  TU54                 0.00      0.00      0.00
  TU55                 0.00      0.00      0.00
  TU56                 0.00      0.00      0.00
  TU57                 0.00      0.00      0.00
  TU58                56.00      1.00      6.18
  TU59                56.00      0.16      0.07
  TU6                 58.00      0.08      0.01
  TU61                -0.00      0.00      0.00
  TU62                -0.00      0.00      0.00
  TU63                 0.00      0.00      0.00
  TU65                51.00      1.05      7.45
  TU66                51.00      0.17      0.09
  TU67               119.00      0.34      0.29
  TU68               119.00      0.34      0.29
  TU69               175.00      0.25      0.11
  TU7                  0.00      0.00      0.00
  TU70               175.00      0.25      0.11
  TU71               175.00      0.25      0.11
  TU72                 0.00      0.00      0.00
  TU73               122.00      0.27      0.16
  TU74               194.00      0.43      0.38
  TU75               194.00      0.43      0.38
  TU76               275.00      0.61      0.72
  TU77               275.00      0.61      0.72
  TU78                 0.00      0.00      0.00
  TU79                 0.00      0.00      0.00
  TU8                 48.00      0.52      1.40
  TU80                 0.00      0.00      0.00
  TU81                 0.00      0.00      0.00
  TU82                 0.00      0.00      0.00
  TU83                 0.00      0.00      0.00
  TU84                 0.00      0.00      0.00
  TU85                 0.00      0.00      0.00
  TU86                 0.00      0.00      0.00
  TU87                 0.00      0.00      0.00
  TU88                 0.00      0.00      0.00
  TU89                 0.00      0.00      0.00
  TU9                  0.00      0.00      0.00
  TU90                 0.00      0.00      0.00
  TU91                -0.00      0.00      0.00
  TU92                -0.00      0.00      0.00
  TU93                 0.00      0.00      0.00
  TU94                 0.00      0.00      0.00
  TU95                 0.00      0.00      0.00
  TU96                 0.00      0.00      0.00
  TU97                 0.00      0.00      0.00
  TU98                 0.00      0.00      0.00
  TU99                 0.00      0.00      0.00
  TU4000               0.00      0.00      0.00
  TU60                 0.00      0.00      0.00
  TU64                 0.00      0.00      0.00
  TU51                 0.00      0.00      0.00
  2                    0.00      0.00     36.00  PBV
  3                    0.00      0.00      0.00  PBV
   
  Analysis ended Fri Sep  8 13:07:47 2023
