  Page 1                                    Fri Sep  8 13:10:50 2023

  ******************************************************************
  *                           E P A N E T                          *
  *                   Hydraulic and Water Quality                  *
  *                   Analysis for Pipe Networks                   *
  *                         Version 2.2                            *
  ******************************************************************
  
  Analysis begun Fri Sep  8 13:10:50 2023

   
  Node Results:
  ----------------------------------------------
                     Demand      Head  Pressure
  Node                 m3/h         m         m
  ----------------------------------------------
  3661                 0.00    428.97     50.83
  482                  0.00    428.79     82.79
  661                  0.00    426.29     96.29
  6610                 0.00    428.21     68.21
  6611                 0.00    428.57     93.57
  6612                 0.00    428.66     66.29
  6613                 0.00    428.39     73.39
  6615                 0.00    426.37     87.37
  6616                 0.00    426.29     65.29
  6617                 0.00    425.48     82.48
  6618                 0.00    426.30     78.30
  662                  0.00    428.87    100.87
  6620                 0.00    425.04    117.04
  6621                 0.00    425.84     97.84
  6622                 0.00    426.02     89.02
  6623                 0.00    426.20     75.20
  6624                 0.00    426.24     74.24
  6625                 0.00    390.24     78.24
  6626                 0.00    426.24    105.24
  6627                 0.00    426.29    105.29
  6628                 0.00    427.16     88.16
  6629                 0.00    428.47     88.47
  663                  0.00    428.80     87.80
  6630                 0.00    428.25     88.45
  6632                 0.00    428.78     88.78
  6633                 0.00    428.95     66.31
  6634                 0.00    428.96     57.96
  6635                 0.00    428.93     76.93
  6636                 0.00    428.93     72.93
  6637                 0.00    428.90     61.90
  6639                 0.00    428.58     68.58
  664                  0.00    428.74     80.74
  6640                 0.00    428.50     68.50
  6641                 0.00    428.63     69.95
  6642                 0.00    428.63     72.63
  6643                 0.00    428.73     76.73
  6644                 0.00    428.76     76.76
  6645                 0.00    428.76     78.76
  6646                 0.00    428.74     81.72
  6648                 0.00    428.74     82.73
  6649                 0.00    428.60     89.60
  665                  0.00    428.71     83.71
  666                  0.00    428.64     88.64
  6665                 0.00    428.74     63.60
  6666                 0.00    428.83     61.17
  667                  0.00    428.76     76.76
  668                  0.00    426.29     96.29
  669                  0.00    428.45     83.45
  1                    0.00    428.91     98.91
  10                   0.00    428.73     76.73
  100                  0.00    428.63     73.63
  100B                 0.00    428.50     70.50
  101                  0.00    428.39     75.39
  103                  0.00    428.55     89.55
  104                  0.00    428.55     89.55
  105                  0.00    428.39     73.39
  106                 54.00    428.32     73.32
  107                  0.00    426.37     87.37
  108                  0.00    426.37     87.81
  109                  0.00    426.37     89.37
  11B                  0.00    428.69     85.69
  110                  0.00    426.28     80.28
  111                  0.00    426.20     87.42
  112                  0.00    426.24     84.24
  113                  0.00    426.08    103.08
  114                  0.00    425.78     77.78
  115                  0.00    425.62     79.62
  116                  0.00    425.69     80.69
  117                  0.00    425.48     82.48
  118                 80.00    424.36     85.36
  119                  0.00    424.36    101.55
  12                 138.00    428.61     98.27
  121                  0.00    425.90     77.10
  122                 53.00    423.15     75.25
  123                  0.00    425.33     79.33
  125                  0.00    425.88     74.88
  126                  0.00    425.64     77.64
  127                102.00    424.69     81.36
  128                  0.00    426.29     64.29
  129                  0.00    426.29     70.29
  130                  0.00    426.29     85.21
  130B                 0.00    426.29     73.29
  132                  0.00    426.29     93.29
  134                  0.00    426.29    105.29
  135                  0.00    426.29    110.29
  137                  0.00    426.29    117.29
  139                  0.00    426.29     66.29
  14                  93.00    428.55     90.55
  140                  0.00    426.29     75.29
  141                  0.00    426.29     74.29
  142                  0.00    426.29     65.29
  143                  0.00    426.29     85.32
  144                  0.00    426.29     67.29
  146                  0.00    426.24     80.24
  147                  0.00    426.24    105.24
  148                  0.00    426.24     93.24
  149                  0.00    390.24     77.03
  15                   0.00    428.57     93.57
  150                  0.00    390.24     82.17
  151                  0.00    390.24     85.00
  152                  0.00    390.24     80.22
  153                  0.00    390.24     80.24
  154                  0.00    425.75    100.75
  157                  0.00    425.04    122.04
  158A                73.00    413.67     92.67
  158B                73.00    413.65     92.65
  16B                  0.00    428.57     94.57
  160                  0.00    428.89     61.89
  162                  0.00    428.86     60.86
  163                  0.00    428.83     54.83
  164                 52.00    428.76     69.10
  165                  0.00    428.74     67.44
  166                  0.00    428.74     67.73
  167                  0.00    428.74     58.10
  169                 73.00    428.60     62.10
  17A                  0.00    428.57     93.57
  170                  0.00    428.91     69.91
  17B                  0.00    428.57     93.57
  171                  0.00    428.93     76.93
  172                  0.00    428.93     88.93
  18B                  0.00    428.57    103.57
  19                   0.00    428.95     70.95
  2                    0.00    428.88    102.88
  20                  86.00    428.97     64.97
  2002                 0.00    428.45     78.45
  2003                 0.00    428.45     78.45
  21                   0.00    426.41     64.81
  22                   0.00    426.40     64.80
  222                  0.00    426.38     76.38
  24                   0.00    426.37     82.37
  25                   0.00    426.35     81.35
  26                   0.00    426.30     78.30
  27                   0.00    426.33     76.33
  28                  49.00    426.31     76.31
  29                   0.00    426.30     70.30
  3                    0.00    428.84     88.49
  30                   0.00    426.29     65.29
  3002                 0.00    428.97     42.97
  3004                 0.00    428.97     42.97
  3005                 0.00    428.97     42.97
  3008                 0.00    428.97     43.97
  3012                 0.00    428.97     58.24
  3013                 0.00    428.97     64.04
  3016                 0.00    428.97     63.97
  3017                 0.00    428.98     46.98
  3018                 0.00    428.95     51.95
  3019                 0.00    428.97     59.58
  3020                 0.00    428.97     60.86
  3024                 0.00    428.97     64.03
  31                   0.00    426.26     68.47
  3152                 0.00    428.97     62.77
  32                   0.00    426.27     68.27
  34                   0.00    426.20     75.18
  35                   0.00    426.02     89.02
  36                   0.00    425.84     97.84
  39                   0.00    425.49    112.49
  41                   0.00    424.78    117.78
  46                   0.00    428.95     52.95
  47                   0.00    428.74     70.56
  48                   0.00    428.74     84.74
  49                  49.00    428.41     76.41
  5                    0.00    428.82     81.82
  52                   0.00    428.41     77.41
  53                   0.00    428.96     72.96
  54                   0.00    428.94     83.94
  55                   0.00    428.91     98.91
  56                   0.00    428.91     94.91
  58                   0.00    428.91     95.91
  59                   0.00    428.91     99.91
  6                    0.00    428.76     76.76
  60                   0.00    428.84     83.84
  61                   0.00    428.84     89.84
  62                   0.00    428.76     74.76
  64                   0.00    428.83     97.83
  65                   0.00    428.78     88.78
  66                   0.00    428.77     89.77
  67                   0.00    428.69     96.69
  68                   0.00    428.25     89.25
  69                  58.00    427.48     76.48
  7                    0.00    428.77     75.77
  70                   0.00    428.36     88.36
  71                  90.00    426.53     89.53
  72                   0.00    428.76     72.76
  73                   0.00    428.73     73.73
  77                   0.00    428.76     72.76
  78                   0.00    428.76     88.62
  79                  44.00    428.77     75.77
  8                    0.00    428.76     78.76
  80                   0.00    428.74     79.74
  81                   0.00    428.74     69.74
  82                   0.00    428.74     70.74
  85                  57.00    426.90     87.90
  86                   0.00    427.16     90.16
  87                 118.00    428.67     68.67
  88                   0.00    428.66     75.66
  89                   0.00    428.65     61.65
  90                   0.00    428.63     72.63
  91                   0.00    428.58     56.58
  92                   0.00    428.21     68.21
  91B                111.00    428.06     68.06
  94                   0.00    428.60     89.60
  95                   0.00    428.35     85.35
  97                   0.00    428.19     97.19
  99                   0.00    428.65     78.65
  74                   0.00    428.72     70.01
  1074                 0.00    428.72     70.72
  11A                 78.00    428.11     85.11
  1011                 0.00    428.19     85.19
  4                    0.00    426.24    114.24
  9                    0.00    425.04    115.04
  0                -1101.00    429.00      0.00  Reservoir
  balsa             -430.00    426.41     -0.00  Reservoir
   
   
  Link Results:
  ----------------------------------------------
                       Flow  Velocity  Headloss
  Link                 m3/h       m/s    /1000m
  ----------------------------------------------
  TU1                 -0.00      0.00      0.00
  TU10                 0.00      0.00      0.00
  TU100              205.00      0.45      0.42
  TU101              205.00      0.29      0.14
  TU102                0.00      0.00      0.00
  TU103              205.00      0.29      0.14
  TU104              205.00      0.29      0.14
  TU105              636.00      0.28      0.07
  TU106              636.00      0.28      0.07
  TU107                0.00      0.00      0.00
  TU108              636.00      0.28      0.07
  TU109              841.00      0.37      0.11
  TU11                54.00      0.25      0.22
  TU110              841.00      0.37      0.11
  TU111                0.00      0.00      0.00
  TU112               -0.00      0.00      0.00
  TU113                0.00      0.00      0.00
  TU114                0.00      0.00      0.00
  TU115              841.00      0.30      0.07
  TU116              841.00      0.30      0.07
  TU117               -0.00      0.00      0.00
  TU118                0.00      0.00      0.00
  TU119              841.00      0.30      0.07
  TU12                 0.00      0.00      0.00
  TU120              841.00      0.30      0.07
  TU121                0.00      0.00      0.00
  TU122                0.00      0.00      0.00
  TU123               -0.00      0.00      0.00
  TU124                0.00      0.00      0.00
  TU125               49.00      0.36      0.57
  TU126               49.00      0.22      0.18
  TU127               49.00      0.22      0.18
  TU128                0.00      0.00      0.00
  TU129                0.00      0.00      0.00
  TU13                 0.00      0.00      0.00
  TU130               -0.00      0.00      0.00
  TU131               -0.00      0.00      0.00
  TU132               73.00      0.32      0.33
  TU133               73.00      0.32      0.33
  TU134              111.00      1.20      6.41
  TU135              125.00      0.28      0.17
  TU136              125.00      0.28      0.17
  TU137              174.00      0.25      0.11
  TU138              174.00      0.25      0.11
  TU139              174.00      0.17      0.04
  TU14               147.00      0.32      0.23
  TU140              174.00      0.17      0.04
  TU141                0.00      0.00      0.00
  TU142                0.00      0.00      0.00
  TU143               -0.00      0.00      0.00
  TU144               -0.00      0.00      0.00
  TU145              111.00      0.77      2.18
  TU146              111.00      0.48      0.71
  TU147              111.00      0.30      0.23
  TU148               -0.00      0.00      0.00
  TU149               -0.00      0.00      0.00
  TU15                -0.00      0.00      0.00
  TU150               -0.00      0.00      0.00
  TU151              111.00      0.16      0.05
  TU152               -0.00      0.00      0.00
  TU15301            229.00      0.32      0.17
  TU15302            229.00      0.32      0.18
  TU1074               0.00      0.00      0.00
  TU154              229.00      0.22      0.07
  TU155               -0.00      0.00      0.00
  TU156              229.00      0.22      0.07
  TU157              229.00      0.22      0.07
  TU158                0.00      0.00      0.00
  TU159              229.00      0.22      0.07
  TU16              1101.00      0.20      0.02
  TU160                0.00      0.00      0.00
  TU161              229.00      0.22      0.07
  TU162              407.00      0.29      0.10
  TU163              363.00      0.26      0.08
  TU164              407.00      0.29      0.10
  TU166               -0.00      0.00      0.00
  TU167               -0.00      0.00      0.00
  TU168                0.00      0.00      0.00
  TU169                0.00      0.00      0.00
  TU17                -0.00      0.00      0.00
  TU170                0.00      0.00      0.00
  TU171              363.00      0.26      0.08
  TU17201             78.00      1.03      5.43
  TU17202              0.00      0.00      0.00
  TU1011A             78.00      1.03      5.43
  TU173               78.00      0.57      1.31
  TU174               -0.00      0.00      0.00
  TU175               78.00      0.36      0.42
  TU176              285.00      0.28      0.11
  TU177              285.00      0.28      0.11
  TU178              147.00      0.14      0.03
  TU179                0.00      0.00      0.00
  TU18                 0.00      0.00      0.00
  TU180                0.00      0.00      0.00
  TU181                0.00      0.00      0.00
  TU182                0.00      0.00      0.00
  TU183                0.00      0.00      0.00
  TU184                0.00      0.00      0.00
  TU185              235.00      0.52      0.54
  TU186              125.00      0.34      0.28
  TU187              125.00      0.28      0.17
  TU188              430.00      0.31      0.11
  TU189              430.00      0.31      0.11
  TU19                 0.00      0.00      0.00
  TU190               -0.00      0.00      0.00
  TU191               -0.00      0.00      0.00
  TU192                0.00      0.00      0.00
  TU193               -0.00      0.00      0.00
  TU194               -0.00      0.00      0.00
  TU195                0.00      0.00      0.00
  TU196                0.00      0.00      0.00
  TU197               -0.00      0.00      0.00
  TU198                0.00      0.00      0.00
  TU199                0.00      0.00      0.00
  TU2                  0.00      0.00      0.00
  TU20                -0.00      0.00      0.00
  TU200               -0.00      0.00      0.00
  TU201                0.00      0.00      0.00
  TU203                0.00      0.00      0.00
  TU204               86.00      0.04      0.00
  TU205               86.00      0.04      0.00
  TU21                -0.00      0.00      0.00
  TU22               430.00      0.24      0.06
  TU23               430.00      0.24      0.06
  TU24               430.00      0.24      0.06
  TU25               430.00      0.24      0.00
  TU26               146.00      0.14      0.03
  TU27               146.00      0.14      0.03
  TU28               146.00      0.14      0.03
  TU29               195.00      0.19      0.05
  TU3                  0.00      0.00      0.00
  TU30                 0.00      0.00      0.00
  TU31                80.00      0.91      4.04
  TU32                 0.00      0.00      0.00
  TU33                80.00      0.37      0.44
  TU34                80.00      0.37      0.44
  TU35                53.00      0.94      5.59
  TU36                53.00      0.61      1.91
  TU37               133.00      0.38      0.35
  TU38               133.00      0.38      0.35
  TU39               102.00      1.16      6.29
  TU4                111.00      0.16      0.05
  TU40               102.00      0.75      2.13
  TU41               235.00      0.52      0.54
  TU42                 0.00      0.00      0.00
  TU43               235.00      0.33      0.18
  TU44               235.00      0.33      0.18
  TU45               235.00      0.33      0.18
  TU46               235.00      0.33      0.18
  TU47                -0.00      0.00      0.00
  TU48               146.00      1.92     17.16
  TU49               146.00      1.23      5.78
  TU5                111.00      0.16      0.05
  TU50                 0.00      0.00      0.00
  TU52               146.00      0.48      0.60
  TU53               146.00      0.48      0.60
  TU54                 0.00      0.00      0.00
  TU55               146.00      0.48      0.60
  TU56                -0.00      0.00      0.00
  TU57               146.00      0.41      0.42
  TU58                 0.00      0.00      0.00
  TU59               146.00      0.41      0.42
  TU6                235.00      0.33      0.18
  TU61                 0.00      0.00      0.00
  TU62                -0.00      0.00      0.00
  TU63                 0.00      0.00      0.00
  TU65                 0.00      0.00      0.00
  TU66                 0.00      0.00      0.00
  TU67                 0.00      0.00      0.00
  TU68                 0.00      0.00      0.00
  TU69               146.00      0.21      0.08
  TU7                  0.00      0.00      0.00
  TU70               146.00      0.21      0.08
  TU71               146.00      0.21      0.08
  TU72                 0.00      0.00      0.00
  TU73                 0.00      0.00      0.00
  TU74                 0.00      0.00      0.00
  TU75                 0.00      0.00      0.00
  TU76                 0.00      0.00      0.00
  TU77                 0.00      0.00      0.00
  TU78                 0.00      0.00      0.00
  TU79                 0.00      0.00      0.00
  TU8                  0.00      0.00      0.00
  TU80                 0.00      0.00      0.00
  TU81                 0.00      0.00      0.00
  TU82                 0.00      0.00      0.00
  TU83                 0.00      0.00      0.00
  TU84                 0.00      0.00      0.00
  TU85                 0.00      0.00      0.00
  TU86                 0.00      0.00      0.00
  TU87                 0.00      0.00      0.00
  TU88                 0.00      0.00      0.00
  TU89                57.00      1.01      6.38
  TU9                 54.00      0.91      5.05
  TU90                 0.00      0.00      0.00
  TU91                57.00      0.65      2.18
  TU92                57.00      0.26      0.24
  TU93                57.00      0.16      0.08
  TU94                90.00      1.03      5.01
  TU95               147.00      0.42      0.42
  TU96                 0.00      0.00      0.00
  TU97                58.00      1.03      6.59
  TU98                58.00      0.66      2.25
  TU99               205.00      0.45      0.42
  TU4000              73.00      0.96      4.81
  TU60                -0.00      0.00      0.00
  TU64                 0.00      0.00      0.00
  TU51               146.00      0.78      1.89
  2                   -0.00      0.00     36.00
  3                  146.00      3.01      0.00
   
  Analysis ended Fri Sep  8 13:10:50 2023
