  Page 1                                    Fri Sep  8 13:25:41 2023

  ******************************************************************
  *                           E P A N E T                          *
  *                   Hydraulic and Water Quality                  *
  *                   Analysis for Pipe Networks                   *
  *                         Version 2.2                            *
  ******************************************************************
  
  Analysis begun Fri Sep  8 13:25:41 2023

   
  Node Results:
  ----------------------------------------------
                     Demand      Head  Pressure
  Node                 m3/h         m         m
  ----------------------------------------------
  3661                 0.00    428.95     50.81
  482                  0.00    428.80     82.80
  661                  0.00    423.72     93.72
  6610                 0.00    428.53     68.53
  6611                 0.00    428.31     93.31
  6612                 0.00    428.54     66.17
  6613                 0.00    427.78     72.78
  6615                 0.00    423.92     84.92
  6616                 0.00    423.77     62.77
  6617                 0.00    423.88     80.88
  6618                 0.00    423.89     75.89
  662                  0.00    428.76    100.76
  6620                 0.00    422.85    114.85
  6621                 0.00    423.37     95.37
  6622                 0.00    423.49     86.49
  6623                 0.00    423.61     72.61
  6624                 0.00    423.64     71.64
  6625                 0.00    387.50     75.50
  6626                 0.00    423.58    102.58
  6627                 0.00    423.72    102.72
  6628                 0.00    426.85     87.85
  6629                 0.00    428.08     88.08
  663                  0.00    428.68     87.68
  6630                 0.00    427.81     88.01
  6632                 0.00    428.39     88.39
  6633                 0.00    428.91     66.27
  6634                 0.00    428.93     57.93
  6635                 0.00    428.86     76.86
  6636                 0.00    428.86     72.86
  6637                 0.00    428.80     61.80
  6639                 0.00    428.53     68.53
  664                  0.00    428.59     80.59
  6640                 0.00    428.53     68.53
  6641                 0.00    428.53     69.85
  6642                 0.00    428.53     72.53
  6643                 0.00    428.59     76.59
  6644                 0.00    428.62     76.62
  6645                 0.00    428.63     78.63
  6646                 0.00    427.84     80.82
  6648                 0.00    427.84     81.83
  6649                 0.00    428.45     89.45
  665                  0.00    428.55     83.55
  666                  0.00    428.19     88.19
  6665                 0.00    428.28     63.14
  6666                 0.00    428.64     60.98
  667                  0.00    428.62     76.62
  668                  0.00    423.72     93.72
  669                  0.00    428.06     83.06
  1                    0.00    428.84     98.84
  10                  58.00    428.29     76.29
  100                  0.00    428.53     73.53
  100B                 0.00    428.53     70.53
  101                 95.00    427.51     74.51
  103                 51.00    424.28     85.28
  104                165.00    424.09     85.09
  105                  0.00    427.78     72.78
  106                  0.00    427.78     72.78
  107                  0.00    423.92     84.92
  108                  0.00    423.92     85.36
  109                  0.00    423.92     86.92
  11B                  0.00    428.53     85.53
  110                  0.00    423.88     77.88
  111                 52.00    423.88     85.10
  112                  0.00    423.88     81.88
  113                  0.00    423.88    100.88
  114                  0.00    423.88     75.88
  115                  0.00    423.88     77.88
  116                  0.00    423.88     78.88
  117                  0.00    423.88     80.88
  118                  0.00    423.88     84.88
  119                  0.00    423.88    101.07
  12                   0.00    428.43     98.09
  121                  0.00    423.88     75.08
  122                  0.00    423.88     75.98
  123                  0.00    423.88     77.88
  125                  0.00    423.88     72.88
  126                  0.00    423.88     75.88
  127                  0.00    423.88     80.55
  128                  0.00    423.76     61.76
  129                  0.00    423.75     67.75
  130                  0.00    423.73     82.65
  130B                 0.00    423.74     70.74
  132                  0.00    421.67     88.67
  134                  0.00    423.72    102.72
  135                  0.00    423.72    107.72
  137                  0.00    423.72    114.72
  139                  0.00    423.72     63.72
  14                   0.00    428.23     90.23
  140                  0.00    423.72     72.72
  141                  0.00    423.72     71.72
  142                  0.00    423.72     62.72
  143                 64.00    418.65     77.68
  144                  0.00    423.76     64.76
  146                  0.00    423.61     77.61
  147                  0.00    423.58    102.58
  148                  0.00    423.60     90.60
  149                  0.00    387.50     74.29
  15                   0.00    428.31     93.31
  150                  0.00    387.40     79.33
  151                  0.00    387.21     81.97
  152                 60.00    385.70     75.68
  153                  0.00    386.21     76.21
  154                  0.00    423.32     98.32
  157                  0.00    422.85    119.85
  158A                58.00    415.41     94.41
  158B                58.00    415.39     94.39
  16B                  0.00    428.31     94.31
  160                 52.00    428.78     61.78
  162                  0.00    428.71     60.71
  163                  0.00    428.64     54.64
  164                 60.00    428.47     68.81
  165                  0.00    428.28     66.98
  166                 88.00    428.28     67.27
  167                  0.00    428.28     57.64
  169                 51.00    428.34     61.84
  17A                  0.00    428.31     93.31
  170                  0.00    428.83     69.83
  17B                  0.00    428.31     93.31
  171                  0.00    428.86     76.86
  172                  0.00    428.86     88.86
  18B                  0.00    428.31    103.31
  19                   0.00    428.91     70.91
  2                    0.00    428.78    102.78
  20                   0.00    428.95     64.95
  2002                 0.00    428.06     78.06
  2003                 0.00    428.06     78.06
  21                   0.00    423.95     62.35
  22                   0.00    423.95     62.35
  222                  0.00    423.93     73.93
  24                   0.00    423.92     79.92
  25                   0.00    423.91     78.91
  26                   0.00    423.89     75.89
  27                   0.00    423.89     73.89
  28                   0.00    423.86     73.86
  29                   0.00    423.78     67.78
  3                    0.00    428.72     88.37
  30                   0.00    423.77     62.77
  3002                 0.00    428.95     42.95
  3004                 0.00    428.95     42.95
  3005                 0.00    428.95     42.95
  3008                 0.00    428.95     43.95
  3012                 0.00    428.95     58.22
  3013                 0.00    428.95     64.02
  3016                 0.00    428.95     63.95
  3017               143.00    428.95     46.95
  3018                 0.00    428.90     51.90
  3019                 0.00    428.95     59.56
  3020                 0.00    428.95     60.84
  3024                 0.00    428.95     64.01
  31                  93.00    423.66     65.87
  3152                 0.00    428.95     62.75
  32                   0.00    423.71     65.71
  34                   0.00    423.61     72.59
  35                   0.00    423.49     86.49
  36                   0.00    423.37     95.37
  39                   0.00    423.14    110.14
  41                   0.00    422.67    115.67
  46                   0.00    428.90     52.90
  47                   0.00    428.42     70.24
  48                   0.00    428.80     84.80
  49                   0.00    428.80     76.80
  5                    0.00    428.70     81.70
  52                   0.00    428.80     77.80
  53                   0.00    428.93     72.93
  54                   0.00    428.89     83.89
  55                   0.00    428.84     98.84
  56                   0.00    428.84     94.84
  58                   0.00    428.84     95.84
  59                   0.00    428.84     99.84
  6                    0.00    428.62     76.62
  60                   0.00    428.72     83.72
  61                   0.00    428.72     89.72
  62                   0.00    428.62     74.62
  64                   0.00    428.61     97.61
  65                  71.00    428.14     88.14
  66                  84.00    428.39     89.39
  67                 106.00    428.24     96.24
  68                   0.00    427.81     88.81
  69                  58.00    427.04     76.04
  7                    0.00    428.63     75.63
  70                   0.00    427.97     87.97
  71                  66.00    426.98     89.98
  72                   0.00    428.62     72.62
  73                   0.00    428.59     73.59
  77                   0.00    428.62     72.62
  78                   0.00    428.62     88.48
  79                   0.00    428.63     75.63
  8                    0.00    428.63     78.63
  80                   0.00    428.57     79.57
  81                  84.00    425.39     66.39
  82                   0.00    427.84     69.84
  85                  55.00    426.61     87.61
  86                   0.00    426.85     89.85
  87                 113.00    428.54     68.54
  88                   0.00    428.54     75.54
  89                  86.00    428.53     61.53
  90                   0.00    428.53     72.53
  91                   0.00    428.53     56.53
  92                   0.00    428.53     68.53
  91B                  0.00    428.53     68.53
  94                   0.00    428.45     89.45
  95                   0.00    428.24     85.24
  97                   0.00    428.09     97.09
  99                   0.00    428.53     78.53
  74                   0.00    428.58     69.87
  1074                 0.00    428.58     70.58
  11A                 73.00    428.02     85.02
  1011                 0.00    428.09     85.09
  4                    0.00    423.50    111.50
  9                    0.00    422.85    112.85
  0                -1559.00    429.00      0.00  Reservoir
  balsa             -385.00    423.95     -0.00  Reservoir
   
   
  Link Results:
  ----------------------------------------------
                       Flow  Velocity  Headloss
  Link                 m3/h       m/s    /1000m
  ----------------------------------------------
  TU1                 -0.00      0.00      0.00
  TU10                 0.00      0.00      0.00
  TU100              285.00      0.63      0.77
  TU101              369.00      0.52      0.42
  TU102               71.00      1.26      9.53
  TU103              440.00      0.62      0.58
  TU104              440.00      0.62      0.58
  TU105              725.00      0.32      0.08
  TU106              725.00      0.32      0.08
  TU107                0.00      0.00      0.00
  TU108              725.00      0.32      0.08
  TU109             1165.00      0.51      0.20
  TU11                95.00      0.43      0.61
  TU110             1165.00      0.51      0.20
  TU111                0.00      0.00      0.00
  TU112               -0.00      0.00      0.00
  TU113                0.00      0.00      0.00
  TU114                0.00      0.00      0.00
  TU115             1165.00      0.41      0.12
  TU116             1165.00      0.41      0.12
  TU117               -0.00      0.00      0.00
  TU118                0.00      0.00      0.00
  TU119             1165.00      0.41      0.12
  TU12               165.00      1.88     15.23
  TU120             1165.00      0.41      0.12
  TU121                0.00      0.00      0.00
  TU122                0.00      0.00      0.00
  TU123               -0.00      0.00      0.00
  TU124                0.00      0.00      0.00
  TU125               -0.00      0.00      0.00
  TU126               -0.00      0.00      0.00
  TU127               -0.00      0.00      0.00
  TU128                0.00      0.00      0.00
  TU129                0.00      0.00      0.00
  TU13               216.00      1.58      8.42
  TU130               -0.00      0.00      0.00
  TU131               88.00      0.38      0.47
  TU132               51.00      0.22      0.18
  TU133              139.00      0.61      1.07
  TU134               -0.00      0.00      0.00
  TU135              199.00      0.44      0.40
  TU136              251.00      0.55      0.61
  TU137              251.00      0.36      0.21
  TU138              251.00      0.36      0.21
  TU139              251.00      0.25      0.09
  TU14               311.00      0.69      0.90
  TU140              251.00      0.25      0.09
  TU141                0.00      0.00      0.00
  TU142                0.00      0.00      0.00
  TU143               -0.00      0.00      0.00
  TU144               -0.00      0.00      0.00
  TU145               -0.00      0.00      0.00
  TU146               -0.00      0.00      0.00
  TU147               -0.00      0.00      0.00
  TU148               -0.00      0.00      0.00
  TU149               -0.00      0.00      0.00
  TU15                -0.00      0.00      0.00
  TU150               -0.00      0.00      0.00
  TU151               -0.00      0.00      0.00
  TU152               -0.00      0.00      0.00
  TU15301            199.00      0.28      0.14
  TU15302            199.00      0.28      0.14
  TU1074               0.00      0.00      0.00
  TU154              199.00      0.20      0.06
  TU155               58.00      0.98      5.75
  TU156              257.00      0.25      0.09
  TU157              257.00      0.25      0.09
  TU158                0.00      0.00      0.00
  TU159              257.00      0.25      0.09
  TU16              1559.00      0.28      0.04
  TU160                0.00      0.00      0.00
  TU161              257.00      0.25      0.09
  TU162              468.00      0.34      0.13
  TU163              468.00      0.34      0.13
  TU164              468.00      0.34      0.12
  TU166               84.00      1.73     18.56
  TU167               -0.00      0.00      0.00
  TU168                0.00      0.00      0.00
  TU169               84.00      0.71      2.11
  TU17                -0.00      0.00      0.00
  TU170               84.00      0.38      0.49
  TU171              384.00      0.28      0.09
  TU17201             73.00      0.96      4.81
  TU17202              0.00      0.00      0.00
  TU1011A             73.00      0.96      4.82
  TU173               73.00      0.53      1.16
  TU174               -0.00      0.00      0.00
  TU175               73.00      0.33      0.38
  TU176              311.00      0.31      0.13
  TU177              311.00      0.31      0.13
  TU178              311.00      0.31      0.13
  TU179                0.00      0.00      0.00
  TU18                 0.00      0.00      0.00
  TU180                0.00      0.00      0.00
  TU181                0.00      0.00      0.00
  TU182                0.00      0.00      0.00
  TU183                0.00      0.00      0.00
  TU184                0.00      0.00      0.00
  TU185               -0.00      0.00      0.00
  TU186              199.00      0.54      0.65
  TU187              199.00      0.44      0.40
  TU188              385.00      0.28      0.09
  TU189              385.00      0.28      0.09
  TU19                 0.00      0.00      0.00
  TU190               60.00      0.79      3.37
  TU191                0.00      0.00      0.00
  TU192                0.00      0.00      0.00
  TU193                0.00      0.00      0.00
  TU194               -0.00      0.00      0.00
  TU195                0.00      0.00      0.00
  TU196                0.00      0.00      0.00
  TU197               -0.00      0.00      0.00
  TU198                0.00      0.00      0.00
  TU199                0.00      0.00      0.00
  TU2                  0.00      0.00      0.00
  TU20                 0.00      0.00      0.00
  TU200               -0.00      0.00      0.00
  TU201                0.00      0.00      0.00
  TU203                0.00      0.00      0.00
  TU204                0.00      0.00      0.00
  TU205                0.00      0.00      0.00
  TU21                60.00      0.50      1.15
  TU22               385.00      0.21      0.05
  TU23               385.00      0.21      0.05
  TU24               385.00      0.21      0.05
  TU25               385.00      0.21      0.00
  TU26               333.00      0.33      0.14
  TU27               333.00      0.33      0.14
  TU28               333.00      0.33      0.14
  TU29               333.00      0.33      0.14
  TU3                  0.00      0.00      0.00
  TU30                 0.00      0.00      0.00
  TU31                -0.00      0.00      0.00
  TU32                 0.00      0.00      0.00
  TU33                 0.00      0.00      0.00
  TU34                 0.00      0.00      0.00
  TU35                 0.00      0.00      0.00
  TU36                 0.00      0.00      0.00
  TU37                 0.00      0.00      0.00
  TU38                 0.00      0.00      0.00
  TU39                -0.00      0.00      0.00
  TU4                 86.00      0.12      0.03
  TU40                -0.00      0.00      0.00
  TU41                -0.00      0.00      0.00
  TU42                 0.00      0.00      0.00
  TU43                52.00      0.07      0.01
  TU44                52.00      0.07      0.01
  TU45                52.00      0.07      0.01
  TU46                52.00      0.07      0.01
  TU47                -0.00      0.00      0.00
  TU48               116.00      1.53     11.23
  TU49               116.00      0.98      3.80
  TU5                 86.00      0.12      0.03
  TU50                 0.00      0.00      0.00
  TU52               116.00      0.38      0.40
  TU53               116.00      0.38      0.40
  TU54                 0.00      0.00      0.00
  TU55               116.00      0.38      0.40
  TU56                 0.00      0.00      0.00
  TU57               116.00      0.33      0.27
  TU58                 0.00      0.00      0.00
  TU59               116.00      0.33      0.28
  TU6                 -0.00      0.00      0.00
  TU61                 0.00      0.00      0.00
  TU62                60.00      0.32      0.38
  TU63                 0.00      0.00      0.00
  TU65                 0.00      0.00      0.00
  TU66                60.00      0.20      0.12
  TU67                60.00      0.17      0.08
  TU68                60.00      0.17      0.08
  TU69               176.00      0.25      0.11
  TU7                  0.00      0.00      0.00
  TU70               269.00      0.38      0.23
  TU71               269.00      0.38      0.24
  TU72                64.00      0.14      0.05
  TU73                64.00      0.14      0.05
  TU74                64.00      0.14      0.05
  TU75                64.00      0.14      0.05
  TU76                64.00      0.14      0.05
  TU77                64.00      0.14      0.05
  TU78                 0.00      0.00      0.00
  TU79                 0.00      0.00      0.00
  TU8                 95.00      1.03      4.82
  TU80                 0.00      0.00      0.00
  TU81                 0.00      0.00      0.00
  TU82                64.00      1.14      7.88
  TU83                64.00      0.84      3.79
  TU84                 0.00      0.00      0.00
  TU85                 0.00      0.00      0.00
  TU86                 0.00      0.00      0.00
  TU87                 0.00      0.00      0.00
  TU88                64.00      0.14      0.05
  TU89                55.00      0.98      5.98
  TU9                  0.00      0.00      0.00
  TU90                 0.00      0.00      0.00
  TU91                55.00      0.63      2.05
  TU92                55.00      0.25      0.23
  TU93                55.00      0.16      0.07
  TU94                66.00      0.75      2.85
  TU95               121.00      0.34      0.30
  TU96                 0.00      0.00      0.00
  TU97                58.00      1.03      6.59
  TU98                58.00      0.66      2.25
  TU99               179.00      0.40      0.33
  TU4000              58.00      0.76      3.17
  TU60                60.00      1.24     10.02
  TU64                60.00      0.32      0.38
  TU51               116.00      0.62      1.25
  2                   60.00      1.24     36.00
  3                  116.00      2.39      0.00
   
  Analysis ended Fri Sep  8 13:25:41 2023
