  Page 1                                    Fri Sep  8 13:08:05 2023

  ******************************************************************
  *                           E P A N E T                          *
  *                   Hydraulic and Water Quality                  *
  *                   Analysis for Pipe Networks                   *
  *                         Version 2.2                            *
  ******************************************************************
  
  Analysis begun Fri Sep  8 13:08:05 2023

   
  Node Results:
  ----------------------------------------------
                     Demand      Head  Pressure
  Node                 m3/h         m         m
  ----------------------------------------------
  3661                 0.00    428.95     50.81
  482                  0.00    428.72     82.72
  661                  0.00    422.67     92.67
  6610                 0.00    428.49     68.49
  6611                 0.00    425.06     90.06
  6612                 0.00    428.49     66.12
  6613                 0.00    426.87     71.87
  6615                 0.00    423.51     84.51
  6616                 0.00    423.14     62.14
  6617                 0.00    423.41     80.41
  6618                 0.00    423.42     75.42
  662                  0.00    428.74    100.74
  6620                 0.00    423.08    115.08
  6621                 0.00    423.08     95.08
  6622                 0.00    423.08     86.08
  6623                 0.00    423.08     72.08
  6624                 0.00    423.09     71.09
  6625                 0.00    387.01     75.01
  6626                 0.00    423.01    102.01
  6627                 0.00    422.67    101.67
  6628                 0.00    428.74     89.74
  6629                 0.00    428.74     88.74
  663                  0.00    428.54     87.54
  6630                 0.00    428.74     88.94
  6632                 0.00    428.74     88.74
  6633                 0.00    428.90     66.26
  6634                 0.00    428.92     57.92
  6635                 0.00    428.80     76.80
  6636                 0.00    428.80     72.80
  6637                 0.00    428.72     61.72
  6639                 0.00    428.49     68.49
  664                  0.00    428.28     80.28
  6640                 0.00    428.49     68.49
  6641                 0.00    428.49     69.81
  6642                 0.00    428.49     72.49
  6643                 0.00    428.49     76.49
  6644                 0.00    428.50     76.50
  6645                 0.00    428.50     78.50
  6646                 0.00    427.10     80.08
  6648                 0.00    427.26     81.25
  6649                 0.00    428.13     89.13
  665                  0.00    428.13     83.13
  666                  0.00    428.74     88.74
  6665                 0.00    427.06     61.92
  6666                 0.00    428.51     60.85
  667                  0.00    428.50     76.50
  668                  0.00    422.67     92.67
  669                  0.00    428.74     83.74
  1                   69.00    428.82     98.82
  10                  66.00    428.11     76.11
  100                  0.00    428.49     73.49
  100B                 0.00    428.49     70.49
  101                  0.00    426.87     73.87
  103                  0.00    427.03     88.03
  104                  0.00    427.03     88.03
  105                  0.00    426.87     71.87
  106                 53.00    426.80     71.80
  107                  0.00    423.51     84.51
  108                  0.00    423.51     84.95
  109                  0.00    423.51     86.51
  11B                 88.00    428.02     85.02
  110                  0.00    423.42     77.42
  111                 63.00    423.41     84.63
  112                  0.00    423.42     81.42
  113                  0.00    423.41    100.41
  114                  0.00    423.41     75.41
  115                  0.00    423.41     77.41
  116                  0.00    423.41     78.41
  117                  0.00    423.41     80.41
  118                  0.00    423.41     84.41
  119                  0.00    423.41    100.60
  12                   0.00    427.59     97.25
  121                  0.00    423.41     74.61
  122                  0.00    423.41     75.51
  123                  0.00    423.41     77.41
  125                  0.00    423.41     72.41
  126                  0.00    423.41     75.41
  127                  0.00    423.41     80.08
  128                  0.00    423.12     61.12
  129                  0.00    422.82     66.82
  130                130.00    422.69     81.61
  130B                60.00    422.75     69.75
  132                  0.00    422.67     89.67
  134                  0.00    422.67    101.67
  135                  0.00    422.67    106.67
  137                  0.00    422.67    113.67
  139                 70.00    422.19     62.19
  14                   0.00    427.03     89.03
  140                  0.00    422.45     71.45
  141                  0.00    422.43     70.43
  142                  0.00    422.19     61.19
  143                  0.00    422.67     81.70
  144                 83.00    422.95     63.95
  146                  0.00    423.03     77.03
  147                 40.00    422.89    101.89
  148                 43.00    423.02     90.03
  149                  0.00    387.01     73.80
  15                 211.00    424.46     89.46
  150                  0.00    387.01     78.94
  151                  0.00    387.01     81.77
  152                  0.00    387.01     76.99
  153                  0.00    387.01     77.01
  154                  0.00    423.08     98.08
  157                  0.00    423.08    120.08
  158A                 0.00    423.08    102.08
  158B                 0.00    423.08    102.08
  16B                  0.00    427.03     93.03
  160                  0.00    428.70     61.70
  162                  0.00    428.61     60.61
  163                  0.00    428.51     54.51
  164                  0.00    428.29     68.63
  165                  0.00    427.34     66.04
  166                 91.00    427.34     66.33
  167                142.00    426.73     56.09
  169                  0.00    428.16     61.66
  17A                219.00    424.40     89.40
  170                102.00    428.75     69.75
  17B                  0.00    424.22     89.22
  171                  0.00    428.80     76.80
  172                  0.00    428.80     88.80
  18B                215.00    418.68     93.68
  19                   0.00    428.90     70.90
  2                    0.00    428.75    102.75
  20                   0.00    428.95     64.95
  2002                 0.00    428.74     78.74
  2003                 0.00    428.74     78.74
  21                  62.00    423.57     61.97
  22                   0.00    423.57     61.97
  222                  0.00    423.53     73.53
  24                   0.00    423.51     79.51
  25                   0.00    423.47     78.47
  26                   0.00    423.42     75.42
  27                   0.00    423.43     73.43
  28                   0.00    423.36     73.36
  29                  57.00    423.16     67.16
  3                    0.00    428.65     88.30
  30                   0.00    423.14     62.14
  3002                 0.00    428.95     42.95
  3004                 0.00    428.95     42.95
  3005                 0.00    428.95     42.95
  3008                 0.00    428.95     43.95
  3012                 0.00    428.95     58.22
  3013                 0.00    428.95     64.02
  3016                 0.00    428.95     63.95
  3017                 0.00    428.95     46.95
  3018                 0.00    428.85     51.85
  3019                 0.00    428.95     59.56
  3020                 0.00    428.95     60.84
  3024                 0.00    428.95     64.01
  31                   0.00    423.11     65.32
  3152                 0.00    428.95     62.75
  32                   0.00    423.12     65.12
  34                  56.00    422.97     71.95
  35                   0.00    423.08     86.08
  36                   0.00    423.08     95.08
  39                   0.00    423.08    110.08
  41                   0.00    423.08    116.08
  46                   0.00    428.85     52.85
  47                   0.00    428.16     69.98
  48                   0.00    428.72     84.72
  49                   0.00    428.72     76.72
  5                    0.00    428.59     81.59
  52                   0.00    428.72     77.72
  53                   0.00    428.92     72.92
  54                   0.00    428.87     83.87
  55                   0.00    428.82     98.82
  56                   0.00    428.82     94.82
  58                   0.00    428.82     95.82
  59                   0.00    428.82     99.82
  6                    0.00    428.50     76.50
  60                   0.00    426.46     81.46
  61                  77.00    425.41     86.41
  62                  98.00    424.71     70.71
  64                   0.00    428.74     97.74
  65                   0.00    428.74     88.74
  66                   0.00    428.74     89.74
  67                   0.00    428.74     96.74
  68                   0.00    428.74     89.74
  69                   0.00    428.74     77.74
  7                    0.00    428.40     75.40
  70                   0.00    428.74     88.74
  71                   0.00    428.74     91.74
  72                   0.00    428.32     72.32
  73                   0.00    428.49     73.49
  77                  67.00    427.08     71.08
  78                   0.00    428.32     88.18
  79                   0.00    428.40     75.40
  8                    0.00    428.50     78.50
  80                   0.00    428.25     79.25
  81                   0.00    427.26     68.26
  82                  99.00    426.63     68.63
  85                   0.00    428.74     89.74
  86                   0.00    428.74     91.74
  87                   0.00    428.49     68.49
  88                   0.00    428.49     75.49
  89                   0.00    428.49     61.49
  90                   0.00    428.49     72.49
  91                   0.00    428.49     56.49
  92                   0.00    428.49     68.49
  91B                  0.00    428.49     68.49
  94                   0.00    428.13     89.13
  95                   0.00    428.13     85.13
  97                   0.00    428.13     97.13
  99                   0.00    428.49     78.49
  74                   0.00    428.49     69.78
  1074                 0.00    428.49     70.49
  11A                  0.00    428.13     85.13
  1011                 0.00    428.13     85.13
  4                    0.00    423.01    111.01
  9                    0.00    423.08    113.08
  0                -1597.00    429.00      0.00  Reservoir
  balsa             -664.00    423.57      0.00  Reservoir
   
   
  Link Results:
  ----------------------------------------------
                       Flow  Velocity  Headloss
  Link                 m3/h       m/s    /1000m
  ----------------------------------------------
  TU1                 -0.00      0.00      0.00
  TU10                 0.00      0.00      0.00
  TU100                0.00      0.00      0.00
  TU101                0.00      0.00      0.00
  TU102                0.00      0.00      0.00
  TU103                0.00      0.00      0.00
  TU104                0.00      0.00      0.00
  TU105             1116.00      0.49      0.18
  TU106             1116.00      0.49      0.18
  TU107                0.00      0.00      0.00
  TU108             1193.00      0.52      0.21
  TU109             1193.00      0.52      0.21
  TU11                53.00      0.24      0.21
  TU110             1193.00      0.52      0.21
  TU111                0.00      0.00      0.00
  TU112               -0.00      0.00      0.00
  TU113                0.00      0.00      0.00
  TU114                0.00      0.00      0.00
  TU115             1262.00      0.45      0.14
  TU116             1262.00      0.45      0.14
  TU117               -0.00      0.00      0.00
  TU118                0.00      0.00      0.00
  TU119             1262.00      0.45      0.14
  TU12                 0.00      0.00      0.00
  TU120             1262.00      0.45      0.14
  TU121                0.00      0.00      0.00
  TU122                0.00      0.00      0.00
  TU123               -0.00      0.00      0.00
  TU124                0.00      0.00      0.00
  TU125               -0.00      0.00      0.00
  TU126               -0.00      0.00      0.00
  TU127               -0.00      0.00      0.00
  TU128              142.00      0.62      1.11
  TU129              142.00      0.62      1.11
  TU13                 0.00      0.00      0.00
  TU130              142.00      0.62      1.11
  TU131              233.00      1.01      2.75
  TU132                0.00      0.00      0.00
  TU133              233.00      1.01      2.75
  TU134               -0.00      0.00      0.00
  TU135              233.00      0.52      0.53
  TU136              233.00      0.52      0.53
  TU137              233.00      0.33      0.18
  TU138              335.00      0.47      0.35
  TU139              335.00      0.33      0.15
  TU14                53.00      0.12      0.04
  TU140              335.00      0.33      0.15
  TU141               98.00      1.65     15.02
  TU142              165.00      0.45      0.46
  TU143               -0.00      0.00      0.00
  TU144               -0.00      0.00      0.00
  TU145               -0.00      0.00      0.00
  TU146               -0.00      0.00      0.00
  TU147               -0.00      0.00      0.00
  TU148               -0.00      0.00      0.00
  TU149               -0.00      0.00      0.00
  TU15                -0.00      0.00      0.00
  TU150               -0.00      0.00      0.00
  TU151               -0.00      0.00      0.00
  TU152               -0.00      0.00      0.00
  TU15301              0.00      0.00      0.00
  TU15302              0.00      0.00      0.00
  TU1074               0.00      0.00      0.00
  TU154               -0.00      0.00      0.00
  TU155               66.00      1.11      7.28
  TU156               66.00      0.06      0.01
  TU157              231.00      0.23      0.07
  TU158                0.00      0.00      0.00
  TU159              231.00      0.23      0.07
  TU16              1597.00      0.29      0.04
  TU160                0.00      0.00      0.00
  TU161              231.00      0.23      0.07
  TU162              885.00      0.64      0.40
  TU163              885.00      0.64      0.40
  TU164              885.00      0.64      0.40
  TU166               -0.00      0.00      0.00
  TU167               99.00      1.30      8.40
  TU168               99.00      1.30      8.40
  TU169               99.00      0.83      2.84
  TU17                -0.00      0.00      0.00
  TU170               99.00      0.45      0.65
  TU171              786.00      0.57      0.33
  TU17201             -0.00      0.00      0.00
  TU17202              0.00      0.00      0.00
  TU1011A             -0.00      0.00      0.00
  TU173               -0.00      0.00      0.00
  TU174               -0.00      0.00      0.00
  TU175               -0.00      0.00      0.00
  TU176              698.00      0.69      0.55
  TU177              786.00      0.77      0.69
  TU178              698.00      0.69      0.55
  TU179              645.00      1.83      6.32
  TU18                 0.00      0.00      0.00
  TU180              434.00      1.23      3.04
  TU181              215.00      1.81     11.79
  TU182              215.00      0.98      2.67
  TU183               77.00      0.88      3.77
  TU184                0.00      0.00      0.00
  TU185               -0.00      0.00      0.00
  TU186              233.00      0.63      0.86
  TU187              233.00      0.52      0.53
  TU188              602.00      0.43      0.20
  TU189              602.00      0.43      0.20
  TU19                -0.00      0.00      0.00
  TU190               -0.00      0.00      0.00
  TU191               77.00      1.37     11.06
  TU192                0.00      0.00      0.00
  TU193                0.00      0.00      0.00
  TU194               -0.00      0.00      0.00
  TU195                0.00      0.00      0.00
  TU196                0.00      0.00      0.00
  TU197               -0.00      0.00      0.00
  TU198                0.00      0.00      0.00
  TU199                0.00      0.00      0.00
  TU2                211.00      2.41     24.02
  TU20                 0.00      0.00      0.00
  TU200               -0.00      0.00      0.00
  TU201                0.00      0.00      0.00
  TU203                0.00      0.00      0.00
  TU204                0.00      0.00      0.00
  TU205                0.00      0.00      0.00
  TU21                -0.00      0.00      0.00
  TU22               602.00      0.33      0.10
  TU23               602.00      0.33      0.11
  TU24               602.00      0.33      0.10
  TU25               664.00      0.37      0.12
  TU26               482.00      0.47      0.28
  TU27               482.00      0.47      0.28
  TU28               539.00      0.53      0.34
  TU29               539.00      0.53      0.34
  TU3                  0.00      0.00      0.00
  TU30                 0.00      0.00      0.00
  TU31                -0.00      0.00      0.00
  TU32                 0.00      0.00      0.00
  TU33                 0.00      0.00      0.00
  TU34                 0.00      0.00      0.00
  TU35                -0.00      0.00      0.00
  TU36                 0.00      0.00      0.00
  TU37                 0.00      0.00      0.00
  TU38                 0.00      0.00      0.00
  TU39                -0.00      0.00      0.00
  TU4                 -0.00      0.00      0.00
  TU40                -0.00      0.00      0.00
  TU41                -0.00      0.00      0.00
  TU42                 0.00      0.00      0.00
  TU43                63.00      0.09      0.02
  TU44                63.00      0.09      0.02
  TU45                63.00      0.09      0.02
  TU46                63.00      0.09      0.02
  TU47                -0.00      0.00      0.00
  TU48                 0.00      0.00      0.00
  TU49                 0.00      0.00      0.00
  TU5                  0.00      0.00      0.00
  TU50                 0.00      0.00      0.00
  TU52                 0.00      0.00      0.00
  TU53                 0.00      0.00      0.00
  TU54                 0.00      0.00      0.00
  TU55                 0.00      0.00      0.00
  TU56                 0.00      0.00      0.00
  TU57                 0.00      0.00      0.00
  TU58                56.00      1.00      6.18
  TU59                56.00      0.16      0.07
  TU6                 -0.00      0.00      0.00
  TU61                 0.00      0.00      0.00
  TU62                -0.00      0.00      0.00
  TU63                 0.00      0.00      0.00
  TU65                40.00      0.82      4.79
  TU66                40.00      0.13      0.06
  TU67                83.00      0.24      0.15
  TU68                83.00      0.24      0.15
  TU69               139.00      0.20      0.07
  TU7                 67.00      1.13      7.48
  TU70               139.00      0.20      0.07
  TU71               139.00      0.20      0.07
  TU72                70.00      0.15      0.06
  TU73               200.00      0.44      0.40
  TU74               260.00      0.57      0.65
  TU75               260.00      0.57      0.65
  TU76               343.00      0.76      1.08
  TU77               343.00      0.76      1.08
  TU78                 0.00      0.00      0.00
  TU79                 0.00      0.00      0.00
  TU8                  0.00      0.00      0.00
  TU80                 0.00      0.00      0.00
  TU81                 0.00      0.00      0.00
  TU82                 0.00      0.00      0.00
  TU83                 0.00      0.00      0.00
  TU84                 0.00      0.00      0.00
  TU85                70.00      0.51      1.08
  TU86                70.00      0.32      0.35
  TU87                70.00      0.37      0.50
  TU88                70.00      0.15      0.06
  TU89                 0.00      0.00      0.00
  TU9                 53.00      0.89      4.88
  TU90                 0.00      0.00      0.00
  TU91                -0.00      0.00      0.00
  TU92                -0.00      0.00      0.00
  TU93                 0.00      0.00      0.00
  TU94                 0.00      0.00      0.00
  TU95                 0.00      0.00      0.00
  TU96                 0.00      0.00      0.00
  TU97                 0.00      0.00      0.00
  TU98                 0.00      0.00      0.00
  TU99                 0.00      0.00      0.00
  TU4000               0.00      0.00      0.00
  TU60                -0.00      0.00      0.00
  TU64                 0.00      0.00      0.00
  TU51                 0.00      0.00      0.00
  2                   -0.00      0.00     36.00  PBV
  3                    0.00      0.00      0.00  PBV
   
  Analysis ended Fri Sep  8 13:08:05 2023
