  Page 1                                    Fri Sep  8 13:11:25 2023

  ******************************************************************
  *                           E P A N E T                          *
  *                   Hydraulic and Water Quality                  *
  *                   Analysis for Pipe Networks                   *
  *                         Version 2.2                            *
  ******************************************************************
  
  Analysis begun Fri Sep  8 13:11:25 2023

   
  Node Results:
  ----------------------------------------------
                     Demand      Head  Pressure
  Node                 m3/h         m         m
  ----------------------------------------------
  3661                 0.00    429.00     50.86
  482                  0.00    429.00     83.00
  661                  0.00    427.18     97.18
  6610                 0.00    428.98     68.98
  6611                 0.00    428.95     93.95
  6612                 0.00    428.98     66.61
  6613                 0.00    428.94     73.94
  6615                 0.00    427.24     88.24
  6616                 0.00    427.18     66.18
  6617                 0.00    427.23     84.23
  6618                 0.00    427.23     79.23
  662                  0.00    428.99    100.99
  6620                 0.00    425.89    117.89
  6621                 0.00    426.71     98.71
  6622                 0.00    426.90     89.90
  6623                 0.00    427.09     76.09
  6624                 0.00    427.13     75.13
  6625                 0.00    391.13     79.13
  6626                 0.00    427.13    106.13
  6627                 0.00    427.18    106.18
  6628                 0.00    428.99     89.99
  6629                 0.00    428.99     88.99
  663                  0.00    428.99     87.99
  6630                 0.00    428.99     89.19
  6632                 0.00    428.99     88.99
  6633                 0.00    429.00     66.36
  6634                 0.00    429.00     58.00
  6635                 0.00    429.00     77.00
  6636                 0.00    429.00     73.00
  6637                 0.00    429.00     62.00
  6639                 0.00    428.98     68.98
  664                  0.00    428.98     80.98
  6640                 0.00    428.98     68.98
  6641                 0.00    428.98     70.30
  6642                 0.00    428.98     72.98
  6643                 0.00    428.98     76.98
  6644                 0.00    428.98     76.98
  6645                 0.00    428.98     78.98
  6646                 0.00    428.98     81.96
  6648                 0.00    428.98     82.97
  6649                 0.00    428.98     89.98
  665                  0.00    428.98     83.98
  666                  0.00    428.99     88.99
  6665                 0.00    429.00     63.86
  6666                 0.00    429.00     61.34
  667                  0.00    428.98     76.98
  668                  0.00    427.18     97.18
  669                  0.00    428.99     83.99
  1                   72.00    428.99     98.99
  10                   0.00    428.98     76.98
  100                  0.00    428.98     73.98
  100B                 0.00    428.98     70.98
  101                  0.00    428.94     75.94
  103                  0.00    428.94     89.94
  104                  0.00    428.94     89.94
  105                  0.00    428.94     73.94
  106                  0.00    428.94     73.94
  107                  0.00    427.24     88.24
  108                  0.00    427.24     88.68
  109                  0.00    427.24     90.24
  11B                  0.00    428.98     85.98
  110                  0.00    427.23     81.23
  111                  0.00    427.23     88.45
  112                  0.00    427.23     85.23
  113                  0.00    427.23    104.23
  114                  0.00    427.23     79.23
  115                  0.00    427.23     81.23
  116                  0.00    427.23     82.23
  117                  0.00    427.23     84.23
  118                  0.00    427.23     88.23
  119                  0.00    427.23    104.42
  12                   0.00    428.96     98.62
  121                  0.00    427.23     78.43
  122                  0.00    427.23     79.33
  123                  0.00    427.23     81.23
  125                  0.00    427.23     76.23
  126                  0.00    427.23     79.23
  127                  0.00    427.23     83.90
  128                  0.00    427.18     65.18
  129                  0.00    427.18     71.18
  130                  0.00    427.18     86.10
  130B                 0.00    427.18     74.18
  132                  0.00    427.18     94.18
  134                  0.00    427.18    106.18
  135                  0.00    427.18    111.18
  137                  0.00    427.18    118.18
  139                  0.00    427.18     67.18
  14                  93.00    428.94     90.94
  140                  0.00    427.18     76.18
  141                  0.00    427.18     75.18
  142                  0.00    427.18     66.18
  143                  0.00    427.18     86.21
  144                  0.00    427.18     68.18
  146                  0.00    427.13     81.13
  147                  0.00    427.13    106.13
  148                  0.00    427.13     94.13
  149                  0.00    391.13     77.92
  15                   0.00    428.95     93.95
  150                  0.00    391.13     83.06
  151                  0.00    391.13     85.89
  152                  0.00    391.13     81.11
  153                  0.00    391.13     81.13
  154                  0.00    426.63    101.63
  157                  0.00    425.89    122.89
  158A                74.00    414.24     93.24
  158B                74.00    414.22     93.22
  16B                  0.00    428.95     94.95
  160                  0.00    429.00     62.00
  162                  0.00    429.00     61.00
  163                  0.00    429.00     55.00
  164                  0.00    429.00     69.34
  165                  0.00    429.00     67.70
  166                  0.00    429.00     67.99
  167                  0.00    429.00     58.36
  169                  0.00    429.00     62.50
  17A                  0.00    428.95     93.95
  170                  0.00    429.00     70.00
  17B                  0.00    428.95     93.95
  171                  0.00    429.00     77.00
  172                  0.00    429.00     89.00
  18B                  0.00    428.95    103.95
  19                   0.00    429.00     71.00
  2                    0.00    428.99    102.99
  20                   0.00    429.00     65.00
  2002                 0.00    428.99     78.99
  2003                 0.00    428.99     78.99
  21                   0.00    427.25     65.65
  22                   0.00    427.25     65.65
  222                  0.00    427.24     77.24
  24                   0.00    427.24     83.24
  25                   0.00    427.23     82.23
  26                   0.00    427.23     79.23
  27                   0.00    427.23     77.23
  28                   0.00    427.22     77.22
  29                  59.00    427.18     71.18
  3                    0.00    428.99     88.64
  30                   0.00    427.18     66.18
  3002                 0.00    429.00     43.00
  3004                 0.00    429.00     43.00
  3005                 0.00    429.00     43.00
  3008                 0.00    429.00     44.00
  3012                 0.00    429.00     58.27
  3013                 0.00    429.00     64.07
  3016                 0.00    429.00     64.00
  3017                 0.00    429.00     47.00
  3018                 0.00    429.00     52.00
  3019                 0.00    429.00     59.61
  3020                 0.00    429.00     60.89
  3024                 0.00    429.00     64.06
  31                   0.00    427.15     69.36
  3152                 0.00    429.00     62.80
  32                   0.00    427.16     69.16
  34                   0.00    427.09     76.07
  35                   0.00    426.90     89.90
  36                   0.00    426.71     98.71
  39                   0.00    426.36    113.36
  41                   0.00    425.63    118.63
  46                   0.00    429.00     53.00
  47                   0.00    429.00     70.82
  48                   0.00    429.00     85.00
  49                   0.00    429.00     77.00
  5                    0.00    428.99     81.99
  52                   0.00    429.00     78.00
  53                   0.00    429.00     73.00
  54                   0.00    429.00     84.00
  55                   0.00    428.99     98.99
  56                   0.00    428.99     94.99
  58                   0.00    428.99     95.99
  59                   0.00    428.99     99.99
  6                   57.00    428.79     76.79
  60                   0.00    428.99     83.99
  61                   0.00    428.99     89.99
  62                   0.00    428.98     74.98
  64                   0.00    428.99     97.99
  65                   0.00    428.99     88.99
  66                   0.00    428.99     89.99
  67                   0.00    428.99     96.99
  68                   0.00    428.99     89.99
  69                   0.00    428.99     77.99
  7                    0.00    428.98     75.98
  70                   0.00    428.99     88.99
  71                   0.00    428.99     91.99
  72                   0.00    428.98     72.98
  73                   0.00    428.98     73.98
  77                   0.00    428.98     72.98
  78                   0.00    428.98     88.84
  79                   0.00    428.98     75.98
  8                    0.00    428.98     78.98
  80                   0.00    428.98     79.98
  81                   0.00    428.98     69.98
  82                   0.00    428.98     70.98
  85                   0.00    428.99     89.99
  86                   0.00    428.99     91.99
  87                   0.00    428.98     68.98
  88                   0.00    428.98     75.98
  89                   0.00    428.98     61.98
  90                   0.00    428.98     72.98
  91                   0.00    428.98     56.98
  92                   0.00    428.98     68.98
  91B                  0.00    428.98     68.98
  94                   0.00    428.98     89.98
  95                   0.00    428.98     85.98
  97                   0.00    428.98     97.98
  99                   0.00    428.98     78.98
  74                   0.00    428.98     70.27
  1074                 0.00    428.98     70.98
  11A                  0.00    428.98     85.98
  1011                 0.00    428.98     85.98
  4                    0.00    427.13    115.13
  9                    0.00    425.89    115.89
  0                 -222.00    429.00      0.00  Reservoir
  balsa             -207.00    427.25     -0.00  Reservoir
   
   
  Link Results:
  ----------------------------------------------
                       Flow  Velocity  Headloss
  Link                 m3/h       m/s    /1000m
  ----------------------------------------------
  TU1                 -0.00      0.00      0.00
  TU10                 0.00      0.00      0.00
  TU100                0.00      0.00      0.00
  TU101                0.00      0.00      0.00
  TU102                0.00      0.00      0.00
  TU103                0.00      0.00      0.00
  TU104                0.00      0.00      0.00
  TU105              150.00      0.07      0.00
  TU106              150.00      0.07      0.00
  TU107                0.00      0.00      0.00
  TU108              150.00      0.07      0.00
  TU109              150.00      0.07      0.00
  TU11                -0.00      0.00      0.00
  TU110              150.00      0.07      0.00
  TU111                0.00      0.00      0.00
  TU112               -0.00      0.00      0.00
  TU113                0.00      0.00      0.00
  TU114                0.00      0.00      0.00
  TU115              222.00      0.08      0.01
  TU116              222.00      0.08      0.01
  TU117               -0.00      0.00      0.00
  TU118                0.00      0.00      0.00
  TU119              222.00      0.08      0.01
  TU12                 0.00      0.00      0.00
  TU120              222.00      0.08      0.01
  TU121                0.00      0.00      0.00
  TU122                0.00      0.00      0.00
  TU123                0.00      0.00      0.00
  TU124                0.00      0.00      0.00
  TU125               -0.00      0.00      0.00
  TU126               -0.00      0.00      0.00
  TU127               -0.00      0.00      0.00
  TU128                0.00      0.00      0.00
  TU129                0.00      0.00      0.00
  TU13                 0.00      0.00      0.00
  TU130               -0.00      0.00      0.00
  TU131               -0.00      0.00      0.00
  TU132                0.00      0.00      0.00
  TU133               -0.00      0.00      0.00
  TU134               -0.00      0.00      0.00
  TU135               -0.00      0.00      0.00
  TU136                0.00      0.00      0.00
  TU137                0.00      0.00      0.00
  TU138                0.00      0.00      0.00
  TU139                0.00      0.00      0.00
  TU14                93.00      0.21      0.10
  TU140                0.00      0.00      0.00
  TU141                0.00      0.00      0.00
  TU142                0.00      0.00      0.00
  TU143               -0.00      0.00      0.00
  TU144               -0.00      0.00      0.00
  TU145               -0.00      0.00      0.00
  TU146                0.00      0.00      0.00
  TU147               -0.00      0.00      0.00
  TU148                0.00      0.00      0.00
  TU149               -0.00      0.00      0.00
  TU15                -0.00      0.00      0.00
  TU150               -0.00      0.00      0.00
  TU151               -0.00      0.00      0.00
  TU152               -0.00      0.00      0.00
  TU15301              0.00      0.00      0.00
  TU15302              0.00      0.00      0.00
  TU1074               0.00      0.00      0.00
  TU154               -0.00      0.00      0.00
  TU155                0.00      0.00      0.00
  TU156               -0.00      0.00      0.00
  TU157               -0.00      0.00      0.00
  TU158               57.00      1.01      6.38
  TU159               57.00      0.06      0.01
  TU16               222.00      0.04      0.00
  TU160                0.00      0.00      0.00
  TU161               57.00      0.06      0.01
  TU162               93.00      0.07      0.01
  TU163               93.00      0.07      0.01
  TU164               93.00      0.07      0.01
  TU166               -0.00      0.00      0.00
  TU167               -0.00      0.00      0.00
  TU168                0.00      0.00      0.00
  TU169                0.00      0.00      0.00
  TU17                -0.00      0.00      0.00
  TU170                0.00      0.00      0.00
  TU171               93.00      0.07      0.01
  TU17201              0.00      0.00      0.00
  TU17202              0.00      0.00      0.00
  TU1011A             -0.00      0.00      0.00
  TU173               -0.00      0.00      0.00
  TU174               -0.00      0.00      0.00
  TU175               -0.00      0.00      0.00
  TU176               93.00      0.09      0.01
  TU177               93.00      0.09      0.01
  TU178               93.00      0.09      0.01
  TU179                0.00      0.00      0.00
  TU18                 0.00      0.00      0.00
  TU180                0.00      0.00      0.00
  TU181                0.00      0.00      0.00
  TU182                0.00      0.00      0.00
  TU183                0.00      0.00      0.00
  TU184                0.00      0.00      0.00
  TU185               -0.00      0.00      0.00
  TU186               -0.00      0.00      0.00
  TU187               -0.00      0.00      0.00
  TU188              207.00      0.15      0.03
  TU189              207.00      0.15      0.03
  TU19                 0.00      0.00      0.00
  TU190               -0.00      0.00      0.00
  TU191                0.00      0.00      0.00
  TU192                0.00      0.00      0.00
  TU193                0.00      0.00      0.00
  TU194               -0.00      0.00      0.00
  TU195                0.00      0.00      0.00
  TU196                0.00      0.00      0.00
  TU197               -0.00      0.00      0.00
  TU198                0.00      0.00      0.00
  TU199                0.00      0.00      0.00
  TU2                  0.00      0.00      0.00
  TU20                 0.00      0.00      0.00
  TU200               -0.00      0.00      0.00
  TU201                0.00      0.00      0.00
  TU203                0.00      0.00      0.00
  TU204                0.00      0.00      0.00
  TU205                0.00      0.00      0.00
  TU21                -0.00      0.00      0.00
  TU22               207.00      0.11      0.02
  TU23               207.00      0.11      0.02
  TU24               207.00      0.11      0.02
  TU25               207.00      0.11      0.00
  TU26               148.00      0.15      0.03
  TU27               148.00      0.15      0.03
  TU28               207.00      0.20      0.06
  TU29               207.00      0.20      0.06
  TU3                  0.00      0.00      0.00
  TU30                 0.00      0.00      0.00
  TU31                -0.00      0.00      0.00
  TU32                 0.00      0.00      0.00
  TU33                 0.00      0.00      0.00
  TU34                 0.00      0.00      0.00
  TU35                -0.00      0.00      0.00
  TU36                 0.00      0.00      0.00
  TU37                 0.00      0.00      0.00
  TU38                 0.00      0.00      0.00
  TU39                -0.00      0.00      0.00
  TU4                 -0.00      0.00      0.00
  TU40                 0.00      0.00      0.00
  TU41                -0.00      0.00      0.00
  TU42                 0.00      0.00      0.00
  TU43                -0.00      0.00      0.00
  TU44                -0.00      0.00      0.00
  TU45                -0.00      0.00      0.00
  TU46                -0.00      0.00      0.00
  TU47                -0.00      0.00      0.00
  TU48               148.00      1.95     17.60
  TU49               148.00      1.25      5.93
  TU5                  0.00      0.00      0.00
  TU50                 0.00      0.00      0.00
  TU52               148.00      0.49      0.62
  TU53               148.00      0.49      0.62
  TU54                 0.00      0.00      0.00
  TU55               148.00      0.49      0.62
  TU56                 0.00      0.00      0.00
  TU57               148.00      0.42      0.43
  TU58                 0.00      0.00      0.00
  TU59               148.00      0.42      0.43
  TU6                 -0.00      0.00      0.00
  TU61                 0.00      0.00      0.00
  TU62                -0.00      0.00      0.00
  TU63                 0.00      0.00      0.00
  TU65                 0.00      0.00      0.00
  TU66                 0.00      0.00      0.00
  TU67                 0.00      0.00      0.00
  TU68                 0.00      0.00      0.00
  TU69               148.00      0.21      0.08
  TU7                  0.00      0.00      0.00
  TU70               148.00      0.21      0.08
  TU71               148.00      0.21      0.08
  TU72                 0.00      0.00      0.00
  TU73                 0.00      0.00      0.00
  TU74                 0.00      0.00      0.00
  TU75                 0.00      0.00      0.00
  TU76                 0.00      0.00      0.00
  TU77                 0.00      0.00      0.00
  TU78                 0.00      0.00      0.00
  TU79                 0.00      0.00      0.00
  TU8                  0.00      0.00      0.00
  TU80                 0.00      0.00      0.00
  TU81                 0.00      0.00      0.00
  TU82                 0.00      0.00      0.00
  TU83                 0.00      0.00      0.00
  TU84                 0.00      0.00      0.00
  TU85                 0.00      0.00      0.00
  TU86                 0.00      0.00      0.00
  TU87                 0.00      0.00      0.00
  TU88                 0.00      0.00      0.00
  TU89                 0.00      0.00      0.00
  TU9                  0.00      0.00      0.00
  TU90                 0.00      0.00      0.00
  TU91                -0.00      0.00      0.00
  TU92                -0.00      0.00      0.00
  TU93                 0.00      0.00      0.00
  TU94                 0.00      0.00      0.00
  TU95                 0.00      0.00      0.00
  TU96                 0.00      0.00      0.00
  TU97                 0.00      0.00      0.00
  TU98                 0.00      0.00      0.00
  TU99                 0.00      0.00      0.00
  TU4000              74.00      0.97      4.94
  TU60                 0.00      0.00      0.00
  TU64                 0.00      0.00      0.00
  TU51               148.00      0.79      1.94
  2                   -0.00      0.00     36.00
  3                  148.00      3.05      0.00
   
  Analysis ended Fri Sep  8 13:11:25 2023
