  Page 1                                    Fri Sep  8 13:06:20 2023

  ******************************************************************
  *                           E P A N E T                          *
  *                   Hydraulic and Water Quality                  *
  *                   Analysis for Pipe Networks                   *
  *                         Version 2.2                            *
  ******************************************************************
  
  Analysis begun Fri Sep  8 13:06:20 2023

   
  Node Results:
  ----------------------------------------------
                     Demand      Head  Pressure
  Node                 m3/h         m         m
  ----------------------------------------------
  3661                 0.00    428.99     50.85
  482                  0.00    428.96     82.96
  661                  0.00    425.40     95.40
  6610                 0.00    428.95     68.95
  6611                 0.00    428.96     93.96
  6612                 0.00    428.95     66.58
  6613                 0.00    428.96     73.96
  6615                 0.00    426.20     87.20
  6616                 0.00    425.87     64.87
  6617                 0.00    426.09     83.09
  6618                 0.00    426.13     78.13
  662                  0.00    428.96    100.96
  6620                 0.00    425.80    117.80
  6621                 0.00    425.80     97.80
  6622                 0.00    425.80     88.80
  6623                 0.00    425.80     74.80
  6624                 0.00    425.81     73.81
  6625                 0.00    389.68     77.68
  6626                 0.00    425.68    104.68
  6627                 0.00    425.40    104.40
  6628                 0.00    428.42     89.42
  6629                 0.00    428.79     88.79
  663                  0.00    428.96     87.96
  6630                 0.00    428.88     89.08
  6632                 0.00    428.93     88.93
  6633                 0.00    428.98     66.34
  6634                 0.00    428.98     57.98
  6635                 0.00    428.97     76.97
  6636                 0.00    428.97     72.97
  6637                 0.00    428.96     61.96
  6639                 0.00    428.95     68.95
  664                  0.00    428.96     80.96
  6640                 0.00    428.95     68.95
  6641                 0.00    428.95     70.27
  6642                 0.00    428.95     72.95
  6643                 0.00    428.95     76.95
  6644                 0.00    428.95     76.95
  6645                 0.00    428.95     78.95
  6646                 0.00    428.96     81.94
  6648                 0.00    428.96     82.95
  6649                 0.00    428.96     89.96
  665                  0.00    428.96     83.96
  666                  0.00    428.88     88.88
  6665                 0.00    428.54     63.40
  6666                 0.00    428.92     61.26
  667                  0.00    428.95     76.95
  668                  0.00    425.40     95.40
  669                  0.00    428.71     83.71
  1                    0.00    428.96     98.96
  10                  72.00    428.50     76.50
  100                  0.00    428.95     73.95
  100B                 0.00    428.95     70.95
  101                  0.00    428.96     75.96
  103                  0.00    428.96     89.96
  104                  0.00    428.96     89.96
  105                  0.00    428.96     73.96
  106                  0.00    428.96     73.96
  107                  0.00    426.20     87.20
  108                  0.00    426.20     87.64
  109                  0.00    426.20     89.20
  11B                  0.00    428.96     85.96
  110                  0.00    426.13     80.13
  111                  0.00    426.12     87.34
  112                  0.00    426.12     84.12
  113                  0.00    426.11    103.11
  114                  0.00    426.09     78.09
  115                  0.00    426.09     80.09
  116                  0.00    426.09     81.09
  117                  0.00    426.09     83.09
  118                  0.00    426.09     87.09
  119                  0.00    426.09    103.28
  12                   0.00    428.96     98.62
  121                  0.00    426.09     77.29
  122                  0.00    426.09     78.19
  123                  0.00    426.09     80.09
  125                  0.00    426.09     75.09
  126                 65.00    425.98     77.98
  127                  0.00    425.98     82.65
  128                  0.00    425.85     63.85
  129                  0.00    425.55     69.55
  130                138.00    425.41     84.33
  130B                61.00    425.48     72.48
  132                  0.00    423.23     90.23
  134                  0.00    425.40    104.40
  135                  0.00    425.40    109.40
  137                  0.00    425.40    116.40
  139                  0.00    425.40     65.40
  14                   0.00    428.96     90.96
  140                  0.00    425.40     74.40
  141                  0.00    425.40     73.40
  142                  0.00    425.40     64.40
  143                 66.00    420.04     79.07
  144                 76.00    425.69     66.69
  146                  0.00    425.71     79.71
  147                 49.00    425.50    104.50
  148                 65.00    425.69     92.69
  149                  0.00    389.68     76.47
  15                   0.00    428.96     93.96
  150                  0.00    389.68     81.61
  151                  0.00    389.68     84.44
  152                  0.00    389.68     79.66
  153                  0.00    389.68     79.68
  154                  0.00    425.80    100.80
  157                  0.00    425.80    122.80
  158A                 0.00    425.80    104.80
  158B                 0.00    425.80    104.80
  16B                  0.00    428.96     94.96
  160                  0.00    428.95     61.95
  162                  0.00    428.94     60.94
  163                  0.00    428.92     54.92
  164                  0.00    428.87     69.21
  165                  0.00    428.68     67.38
  166                  0.00    428.68     67.67
  167                 97.00    428.37     57.73
  169                  0.00    428.84     62.34
  17A                  0.00    428.96     93.96
  170                  0.00    428.96     69.96
  17B                  0.00    428.96     93.96
  171                  0.00    428.97     76.97
  172                  0.00    428.97     88.97
  18B                  0.00    428.96    103.96
  19                   0.00    428.98     70.98
  2                    0.00    428.96    102.96
  20                   0.00    428.99     64.99
  2002                 0.00    428.71     78.71
  2003                 0.00    428.71     78.71
  21                   0.00    426.26     64.66
  22                   0.00    426.26     64.66
  222                  0.00    426.23     76.23
  24                   0.00    426.20     82.20
  25                   0.00    426.17     81.17
  26                   0.00    426.13     78.13
  27                   0.00    426.13     76.13
  28                   0.00    426.07     76.07
  29                   0.00    425.90     69.90
  3                    0.00    428.96     88.61
  30                   0.00    425.88     64.88
  3002                 0.00    428.99     42.99
  3004                 0.00    428.99     42.99
  3005                 0.00    428.99     42.99
  3008                 0.00    428.99     43.99
  3012                 0.00    428.99     58.26
  3013                 0.00    428.99     64.06
  3016               103.00    428.99     63.99
  3017                 0.00    428.99     46.99
  3018                 0.00    428.98     51.98
  3019                 0.00    428.99     59.60
  3020                 0.00    428.99     60.88
  3024                 0.00    428.99     64.05
  31                   0.00    425.83     68.04
  3152                 0.00    428.99     62.79
  32                   0.00    425.85     67.85
  34                  48.00    425.72     74.70
  35                   0.00    425.80     88.80
  36                   0.00    425.80     97.80
  39                   0.00    425.80    112.80
  41                   0.00    425.80    118.80
  46                   0.00    428.98     52.98
  47                   0.00    428.84     70.66
  48                   0.00    428.96     84.96
  49                   0.00    428.96     76.96
  5                    0.00    428.96     81.96
  52                   0.00    428.96     77.96
  53                 144.00    425.82     69.82
  54                   0.00    428.97     83.97
  55                   0.00    428.07     98.07
  56                   0.00    427.63     93.63
  58                 105.00    423.79     90.79
  59                 161.00    420.17     91.17
  6                    0.00    428.95     76.95
  60                   0.00    428.96     83.96
  61                   0.00    428.96     89.96
  62                   0.00    428.95     74.95
  64                   0.00    428.95     97.95
  65                   0.00    428.93     88.93
  66                   0.00    428.93     89.93
  67                   0.00    428.90     96.90
  68                   0.00    428.88     89.88
  69                   0.00    428.88     77.88
  7                    0.00    428.96     75.96
  70                 110.00    428.42     88.42
  71                   0.00    428.79     91.79
  72                   0.00    428.95     72.95
  73                   0.00    428.95     73.95
  77                   0.00    428.95     72.95
  78                   0.00    428.95     88.81
  79                   0.00    428.96     75.96
  8                    0.00    428.95     78.95
  80                   0.00    428.96     79.96
  81                   0.00    428.96     69.96
  82                   0.00    428.96     70.96
  85                   0.00    428.42     89.42
  86                   0.00    428.42     91.42
  87                   0.00    428.95     68.95
  88                   0.00    428.95     75.95
  89                   0.00    428.95     61.95
  90                   0.00    428.95     72.95
  91                   0.00    428.95     56.95
  92                   0.00    428.95     68.95
  91B                  0.00    428.95     68.95
  94                   0.00    428.96     89.96
  95                   0.00    428.96     85.96
  97                   0.00    428.96     97.96
  99                   0.00    428.95     78.95
  74                   0.00    428.95     70.24
  1074                 0.00    428.95     70.95
  11A                  0.00    428.96     85.96
  1011                 0.00    428.96     85.96
  4                    0.00    425.68    113.68
  9                    0.00    425.80    115.80
  0                 -792.00    429.00      0.00  Reservoir
  balsa             -568.00    426.26     -0.00  Reservoir
   
   
  Link Results:
  ----------------------------------------------
                       Flow  Velocity  Headloss
  Link                 m3/h       m/s    /1000m
  ----------------------------------------------
  TU1                 -0.00      0.00      0.00
  TU10                 0.00      0.00      0.00
  TU100              110.00      0.24      0.14
  TU101              110.00      0.16      0.05
  TU102                0.00      0.00      0.00
  TU103              110.00      0.16      0.05
  TU104              110.00      0.16      0.05
  TU105               72.00      0.03      0.00
  TU106               72.00      0.03      0.00
  TU107                0.00      0.00      0.00
  TU108               72.00      0.03      0.00
  TU109              182.00      0.08      0.01
  TU11                -0.00      0.00      0.00
  TU110              182.00      0.08      0.01
  TU111              161.00      2.12     20.56
  TU112              266.00      1.94     12.37
  TU113              266.00      1.41      5.68
  TU114              266.00      1.41      5.68
  TU115              448.00      0.16      0.02
  TU116              448.00      0.16      0.02
  TU117              144.00      1.55     10.34
  TU118                0.00      0.00      0.00
  TU119              448.00      0.16      0.02
  TU12                 0.00      0.00      0.00
  TU120              592.00      0.21      0.03
  TU121               -0.00      0.00      0.00
  TU122                0.00      0.00      0.00
  TU123               -0.00      0.00      0.00
  TU124                0.00      0.00      0.00
  TU125               -0.00      0.00      0.00
  TU126               -0.00      0.00      0.00
  TU127               -0.00      0.00      0.00
  TU128               97.00      0.42      0.56
  TU129               97.00      0.42      0.56
  TU13                 0.00      0.00      0.00
  TU130               97.00      0.42      0.56
  TU131               97.00      0.42      0.56
  TU132                0.00      0.00      0.00
  TU133               97.00      0.42      0.56
  TU134               -0.00      0.00      0.00
  TU135               97.00      0.21      0.11
  TU136               97.00      0.21      0.11
  TU137               97.00      0.14      0.04
  TU138               97.00      0.14      0.04
  TU139               97.00      0.10      0.02
  TU14                -0.00      0.00      0.00
  TU140               97.00      0.10      0.02
  TU141                0.00      0.00      0.00
  TU142                0.00      0.00      0.00
  TU143               -0.00      0.00      0.00
  TU144               -0.00      0.00      0.00
  TU145               -0.00      0.00      0.00
  TU146               -0.00      0.00      0.00
  TU147               -0.00      0.00      0.00
  TU148               -0.00      0.00      0.00
  TU149               -0.00      0.00      0.00
  TU15                -0.00      0.00      0.00
  TU150               -0.00      0.00      0.00
  TU151               -0.00      0.00      0.00
  TU152               -0.00      0.00      0.00
  TU15301              0.00      0.00      0.00
  TU15302              0.00      0.00      0.00
  TU1074               0.00      0.00      0.00
  TU154               -0.00      0.00      0.00
  TU155               72.00      1.21      8.53
  TU156               72.00      0.07      0.01
  TU157               72.00      0.07      0.01
  TU158                0.00      0.00      0.00
  TU159               72.00      0.07      0.01
  TU16               792.00      0.14      0.01
  TU160                0.00      0.00      0.00
  TU161               72.00      0.07      0.01
  TU162                0.00      0.00      0.00
  TU163               -0.00      0.00      0.00
  TU164                0.00      0.00      0.00
  TU166               -0.00      0.00      0.00
  TU167               -0.00      0.00      0.00
  TU168                0.00      0.00      0.00
  TU169                0.00      0.00      0.00
  TU17                -0.00      0.00      0.00
  TU170                0.00      0.00      0.00
  TU171               -0.00      0.00      0.00
  TU17201              0.00      0.00      0.00
  TU17202              0.00      0.00      0.00
  TU1011A             -0.00      0.00      0.00
  TU173               -0.00      0.00      0.00
  TU174               -0.00      0.00      0.00
  TU175               -0.00      0.00      0.00
  TU176               -0.00      0.00      0.00
  TU177               -0.00      0.00      0.00
  TU178               -0.00      0.00      0.00
  TU179                0.00      0.00      0.00
  TU18                 0.00      0.00      0.00
  TU180                0.00      0.00      0.00
  TU181                0.00      0.00      0.00
  TU182                0.00      0.00      0.00
  TU183                0.00      0.00      0.00
  TU184                0.00      0.00      0.00
  TU185               65.00      0.14      0.05
  TU186               97.00      0.26      0.18
  TU187               97.00      0.21      0.11
  TU188              568.00      0.41      0.18
  TU189              568.00      0.41      0.18
  TU19                 0.00      0.00      0.00
  TU190               -0.00      0.00      0.00
  TU191                0.00      0.00      0.00
  TU192                0.00      0.00      0.00
  TU193                0.00      0.00      0.00
  TU194               -0.00      0.00      0.00
  TU195                0.00      0.00      0.00
  TU196                0.00      0.00      0.00
  TU197               -0.00      0.00      0.00
  TU198                0.00      0.00      0.00
  TU199                0.00      0.00      0.00
  TU2                  0.00      0.00      0.00
  TU20                -0.00      0.00      0.00
  TU200               -0.00      0.00      0.00
  TU201                0.00      0.00      0.00
  TU203                0.00      0.00      0.00
  TU204                0.00      0.00      0.00
  TU205              103.00      0.04      0.00
  TU21                -0.00      0.00      0.00
  TU22               568.00      0.31      0.09
  TU23               568.00      0.31      0.09
  TU24               568.00      0.31      0.09
  TU25               568.00      0.31      0.12
  TU26               503.00      0.49      0.30
  TU27               503.00      0.49      0.30
  TU28               503.00      0.49      0.30
  TU29               503.00      0.49      0.30
  TU3                  0.00      0.00      0.00
  TU30                 0.00      0.00      0.00
  TU31                -0.00      0.00      0.00
  TU32                 0.00      0.00      0.00
  TU33                 0.00      0.00      0.00
  TU34                 0.00      0.00      0.00
  TU35                -0.00      0.00      0.00
  TU36                 0.00      0.00      0.00
  TU37                 0.00      0.00      0.00
  TU38                 0.00      0.00      0.00
  TU39                -0.00      0.00      0.00
  TU4                 -0.00      0.00      0.00
  TU40                65.00      0.47      0.94
  TU41                65.00      0.14      0.05
  TU42                 0.00      0.00      0.00
  TU43                65.00      0.09      0.02
  TU44                65.00      0.09      0.02
  TU45                65.00      0.09      0.02
  TU46                65.00      0.09      0.02
  TU47                -0.00      0.00      0.00
  TU48                 0.00      0.00      0.00
  TU49                 0.00      0.00      0.00
  TU5                  0.00      0.00      0.00
  TU50                 0.00      0.00      0.00
  TU52                 0.00      0.00      0.00
  TU53                 0.00      0.00      0.00
  TU54                 0.00      0.00      0.00
  TU55                 0.00      0.00      0.00
  TU56                 0.00      0.00      0.00
  TU57                 0.00      0.00      0.00
  TU58                48.00      0.85      4.67
  TU59                48.00      0.14      0.06
  TU6                 65.00      0.09      0.02
  TU61                 0.00      0.00      0.00
  TU62                -0.00      0.00      0.00
  TU63                 0.00      0.00      0.00
  TU65                49.00      1.01      6.93
  TU66                49.00      0.16      0.08
  TU67               114.00      0.32      0.27
  TU68               114.00      0.32      0.27
  TU69               162.00      0.23      0.09
  TU7                  0.00      0.00      0.00
  TU70               162.00      0.23      0.09
  TU71               162.00      0.23      0.09
  TU72                66.00      0.15      0.05
  TU73               204.00      0.45      0.42
  TU74               265.00      0.59      0.67
  TU75               265.00      0.59      0.67
  TU76               341.00      0.75      1.06
  TU77               341.00      0.75      1.06
  TU78                 0.00      0.00      0.00
  TU79                 0.00      0.00      0.00
  TU8                  0.00      0.00      0.00
  TU80                 0.00      0.00      0.00
  TU81                 0.00      0.00      0.00
  TU82                66.00      1.17      8.34
  TU83                66.00      0.87      4.01
  TU84                 0.00      0.00      0.00
  TU85                 0.00      0.00      0.00
  TU86                 0.00      0.00      0.00
  TU87                 0.00      0.00      0.00
  TU88                66.00      0.15      0.05
  TU89                 0.00      0.00      0.00
  TU9                  0.00      0.00      0.00
  TU90                 0.00      0.00      0.00
  TU91                -0.00      0.00      0.00
  TU92               110.00      0.50      0.79
  TU93               110.00      0.31      0.25
  TU94                 0.00      0.00      0.00
  TU95               110.00      0.31      0.25
  TU96                 0.00      0.00      0.00
  TU97                 0.00      0.00      0.00
  TU98                 0.00      0.00      0.00
  TU99               110.00      0.24      0.14
  TU4000               0.00      0.00      0.00
  TU60                -0.00      0.00      0.00
  TU64                 0.00      0.00      0.00
  TU51                 0.00      0.00      0.00
  2                    0.00      0.00     36.00  PBV
  3                   -0.00      0.00      0.00  PBV
   
  Analysis ended Fri Sep  8 13:06:20 2023
