  Page 1                                    Tue Jun  1 20:53:20 2021

  ******************************************************************
  *                           E P A N E T                          *
  *                   Hydraulic and Water Quality                  *
  *                   Analysis for Pipe Networks                   *
  *                         Version 2.00.12                        *
  ******************************************************************
  
  C:\Mario\Violada 
   
      Input Data File ................... /home/borja/Escritorio/nery/epanet-telecontrol/flowpath/tmp.inp
      Number of Junctions................ 146
      Number of Reservoirs............... 1
      Number of Tanks ................... 0
      Number of Pipes ................... 146
      Number of Pumps ................... 0
      Number of Valves .................. 0
      Headloss Formula .................. Darcy-Weisbach
      Hydraulic Timestep ................ 1.00 hrs
      Hydraulic Accuracy ................ 0.001000
      Status Check Frequency ............ 2
      Maximum Trials Checked ............ 10
      Damping Limit Threshold ........... 0.000000
      Maximum Trials .................... 40
      Quality Analysis .................. None
      Specific Gravity .................. 1.00
      Relative Kinematic Viscosity ...... 1.00
      Relative Chemical Diffusivity ..... 1.00
      Demand Multiplier ................. 1.00
      Total Duration .................... 0.00 hrs
      Reporting Criteria:
         Selected Nodes
         No Links
         with Velocity above 3.00 m/s
   
  Analysis begun Tue Jun  1 20:53:20 2021

   
  Node Results:
  ----------------------------------------------
                     Demand      Head  Pressure
  Node                  L/s         m         m
  ----------------------------------------------
  213               0.000000e+00   4.487928e+02   6.589285e+01
  241               0.000000e+00   4.442446e+02   7.100462e+01
  245               0.000000e+00   4.426642e+02   9.254418e+01
  256               0.000000e+00   4.481236e+02   8.191360e+01
  276               0.000000e+00   4.481236e+02   6.603361e+01
  277               0.000000e+00   4.443998e+02   6.413978e+01
  286               0.000000e+00   4.456666e+02   6.383656e+01
  296               0.000000e+00   4.487599e+02   6.759988e+01
   
   
  Link Results:
  --------------------------------------------------------
                       Flow  Velocity  Headloss  F-Factor
  Link                  L/s       m/s    /1000m          
  --------------------------------------------------------
  1                    0.00    0.0000      0.00    0.0000
  10                  35.00    0.3401      0.28    0.0172
  100                  0.00    0.0000      0.00    0.0000
  102                  0.00    0.0000      0.00    0.0000
  103                  0.00    0.0000      0.00    0.0000
  104                  0.00    0.0000      0.00    0.0000
  105                 23.00    0.5733      1.26    0.0170
  106                 33.30    0.8301      2.46    0.0158
  107                 27.00    0.1683      0.06    0.0189
  11                   0.00    0.0000      0.00    0.0000
  112                 50.00    0.1841      0.05    0.0176
  113                  0.00    0.0000      0.00    0.0000
  117                122.40    0.3312      0.12    0.0152
  118                 50.00    0.1841      0.05    0.0177
  119                 50.00    0.1841      0.05    0.0176
  12                   0.00    0.0000      0.00    0.0000
  120                  0.00    0.0000      0.00    0.0000
  122                  0.00    0.0000      0.00    0.0000
  123                  0.00    0.0000      0.00    0.0000
  126                  0.00    0.0000      0.00    0.0000
  127                  0.00    0.0000      0.00    0.0000
  128                 50.00    0.2496      0.11    0.0171
  131                 50.00    0.3116      0.19    0.0170
  132                 50.00    0.2496      0.11    0.0171
  134                  0.00    0.0000      0.00    0.0000
  136                 23.00    0.2235      0.13    0.0188
  137                 23.00    1.4122     11.02    0.0156
  138                  0.00    0.0000      0.00    0.0000
  139                  0.00    0.0000      0.00    0.0000
  14                  84.00    1.3167      4.31    0.0139
  142                 -0.00    0.0000      0.00    0.0000
  143                  0.00    0.0000      0.00    0.0000
  144                  0.00    0.0000      0.00    0.0000
  145                  0.00    0.0000      0.00    0.0000
  148                 27.00    0.1683      0.06    0.0190
  149                 27.00    0.1683      0.06    0.0190
  15                  86.00    1.3481      4.49    0.0138
  150                  0.00    0.0000      0.00    0.0000
  151                  0.00    0.0000      0.00    0.0000
  156                  0.00    0.0000      0.00    0.0000
  16                  51.00    1.2713      5.32    0.0146
  160                 60.00    0.9405      2.34    0.0148
  162                  0.00    0.0000      0.00    0.0000
  171                 28.00    1.0882      5.23    0.0157
  172                 60.00    0.9405      2.34    0.0148
  175                  0.00    0.0000      0.00    0.0000
  181                  0.00    0.0000      0.00    0.0000
  183                  0.00    0.0000      0.00    0.0000
  184                  0.00    0.0000      0.00    0.0000
  185                  0.00    0.0000      0.00    0.0000
  19                   0.00    0.0000      0.00    0.0000
  2                  122.40    0.3312      0.12    0.0152
  20                  60.00    1.4957      7.15    0.0142
  21                   0.00    0.0000      0.00    0.0000
  22                 396.60    1.4605      2.22    0.0120
  23                  22.00    0.8550      3.39    0.0165
  24                  25.00    0.3919      0.48    0.0176
  25                  25.00    0.3919      0.48    0.0176
  26                 234.00    1.1683      1.76    0.0128
  27                   0.00    0.0000      0.00    0.0000
  28                  81.10    0.7880      1.28    0.0146
  29                   0.00    0.0000      0.00    0.0000
  3                   60.00    0.9405      2.34    0.0148
  30                   0.00    0.0000      0.00    0.0000
  31                 421.60    0.6885      0.35    0.0127
  32                 318.00    1.5876      3.09    0.0121
  33                   0.00    0.0000      0.00    0.0000
  34                 421.60    0.8756      0.62    0.0125
  36                  72.40    1.1349      3.29    0.0143
  37                  93.20    2.3233     15.94    0.0131
  38                   0.00    0.0000      0.00    0.0000
  4                  140.80    0.8775      1.19    0.0137
  40                   0.00    0.0000      0.00    0.0000
  41                   0.00    0.0000      0.00    0.0000
  42                   0.00    0.0000      0.00    0.0000
  43                  25.00    0.0676      0.01    0.0213
  44                   0.00    0.0000      0.00    0.0000
  45                   0.00    0.0000      0.00    0.0000
  46                   0.00    0.0000      0.00    0.0000
  47                   0.00    0.0000      0.00    0.0000
  48                   0.00    0.0000      0.00    0.0000
  5                   22.00    1.3508     10.16    0.0157
  50                   0.00    0.0000      0.00    0.0000
  51                 421.60    0.8756      0.62    0.0124
  52                   0.00    0.0000      0.00    0.0000
  53                   0.00    0.0000      0.00    0.0000
  54                 625.10    0.5755      0.18    0.0125
  56                   0.00    0.0000      0.00    0.0000
  57                   0.00    0.0000      0.00    0.0000
  58                   0.00    0.0000      0.00    0.0000
  59                   0.00    0.0000      0.00    0.0000
  6                   93.20    0.5808      0.56    0.0148
  60                   0.00    0.0000      0.00    0.0000
  61                  81.10    0.7880      1.28    0.0146
  62                  81.10    0.7880      1.28    0.0146
  63                 502.70    0.8209      0.48    0.0123
  64                   0.00    0.0000      0.00    0.0000
  65                   0.00    0.0000      0.00    0.0000
  66                  81.10    0.4049      0.26    0.0156
  67                  81.10    0.7880      1.28    0.0146
  68                   0.00    0.0000      0.00    0.0000
  69                  81.10    0.5054      0.44    0.0152
  7                   78.60    1.2321      3.82    0.0141
  70                  60.00    0.9405      2.34    0.0148
  71                   0.00    0.0000      0.00    0.0000
  72                   0.00    0.0000      0.00    0.0000
  73                   0.00    0.0000      0.00    0.0000
  74                 625.10    0.5755      0.18    0.0123
  76                   0.00    0.0000      0.00    0.0000
  77                   0.00    0.0000      0.00    0.0000
  78                   0.00    0.0000      0.00    0.0000
  79                   0.00    0.0000      0.00    0.0000
  8                    0.00    0.0000      0.00    0.0000
  80                   0.00    0.0000      0.00    0.0000
  81                   0.00    0.0000      0.00    0.0000
  82                   0.00    0.0000      0.00    0.0000
  83                   0.00    0.0000      0.00    0.0000
  84                  72.40    1.1349      3.29    0.0143
  86                  21.10    1.2956      9.43    0.0159
  87                   0.00    0.0000      0.00    0.0000
  88                   0.00    0.0000      0.00    0.0000
  89                   0.00    0.0000      0.00    0.0000
  9                  625.10    0.5755      0.18    0.0125
  90                  60.00    0.9405      2.34    0.0148
  92                   0.00    0.0000      0.00    0.0000
  93                   0.00    0.0000      0.00    0.0000
  94                   0.00    0.0000      0.00    0.0000
  95                   0.00    0.0000      0.00    0.0000
  96                   0.00    0.0000      0.00    0.0000
  97                   0.00    0.0000      0.00    0.0000
  98                   0.00    0.0000      0.00    0.0000
  99                  -0.00    0.0000      0.00    0.0000
  55                  23.00    0.2235      0.13    0.0187
  101                 -0.00    0.0000      0.00    0.0000
  108                 23.00    0.2235      0.13    0.0188
  109                  0.00    0.0000      0.00    0.0000
  49                  -0.00    0.0000      0.00    0.0000
  85                -140.80    0.8775      1.19    0.0137
  91                  -0.00    0.0000      0.00    0.0000
  110                  0.00    0.0000      0.00    0.0000
  111                  0.00    0.0000      0.00    0.0000
  17                   0.00    0.0000      0.00    0.0000
  18                   0.00    0.0000      0.00    0.0000
  39                  28.00    1.7193     15.73    0.0150
  75                   0.00    0.0000      0.00    0.0000
  114                 -0.00    0.0000      0.00    0.0000
   
  Analysis ended Tue Jun  1 20:53:20 2021
