  Page 1                                    Tue Jun  1 20:53:36 2021

  ******************************************************************
  *                           E P A N E T                          *
  *                   Hydraulic and Water Quality                  *
  *                   Analysis for Pipe Networks                   *
  *                         Version 2.00.12                        *
  ******************************************************************
  
  C:\Mario\Violada 
   
      Input Data File ................... /home/borja/Escritorio/nery/epanet-telecontrol/flowpath/tmp.inp
      Number of Junctions................ 146
      Number of Reservoirs............... 1
      Number of Tanks ................... 0
      Number of Pipes ................... 146
      Number of Pumps ................... 0
      Number of Valves .................. 0
      Headloss Formula .................. Darcy-Weisbach
      Hydraulic Timestep ................ 1.00 hrs
      Hydraulic Accuracy ................ 0.001000
      Status Check Frequency ............ 2
      Maximum Trials Checked ............ 10
      Damping Limit Threshold ........... 0.000000
      Maximum Trials .................... 40
      Quality Analysis .................. None
      Specific Gravity .................. 1.00
      Relative Kinematic Viscosity ...... 1.00
      Relative Chemical Diffusivity ..... 1.00
      Demand Multiplier ................. 1.00
      Total Duration .................... 0.00 hrs
      Reporting Criteria:
         Selected Nodes
         No Links
         with Velocity above 3.00 m/s
   
  Analysis begun Tue Jun  1 20:53:36 2021

   
  Node Results:
  ----------------------------------------------
                     Demand      Head  Pressure
  Node                  L/s         m         m
  ----------------------------------------------
  213               0.000000e+00   4.485578e+02   6.565781e+01
  241               0.000000e+00   4.465290e+02   7.328895e+01
  245               0.000000e+00   4.449787e+02   9.485868e+01
  256               3.450000e+01   4.479500e+02   8.174004e+01
  276               0.000000e+00   4.473257e+02   6.523570e+01
  277               2.600000e+01   4.451437e+02   6.488370e+01
  286               0.000000e+00   4.481731e+02   6.634306e+01
  296               0.000000e+00   4.485223e+02   6.736231e+01
   
   
  Link Results:
  --------------------------------------------------------
                       Flow  Velocity  Headloss  F-Factor
  Link                  L/s       m/s    /1000m          
  --------------------------------------------------------
  1                    0.00    0.0000      0.00    0.0000
  10                  39.00    0.3789      0.34    0.0168
  100                  0.00    0.0000      0.00    0.0000
  102                  0.00    0.0000      0.00    0.0000
  103                  0.00    0.0000      0.00    0.0000
  104                 30.80    0.4828      0.70    0.0168
  105                 23.00    0.5733      1.26    0.0170
  106                  0.00    0.0000      0.00    0.0000
  107                 27.00    0.1683      0.06    0.0191
  11                   0.00    0.0000      0.00    0.0000
  112                103.80    0.3823      0.19    0.0153
  113                  0.00    0.0000      0.00    0.0000
  117                160.90    0.4353      0.20    0.0145
  118                103.80    0.3823      0.19    0.0153
  119                103.80    0.3823      0.19    0.0152
  12                   0.00    0.0000      0.00    0.0000
  120                  0.00    0.0000      0.00    0.0000
  122                  0.00    0.0000      0.00    0.0000
  123                  0.00    0.0000      0.00    0.0000
  126                  0.00    0.0000      0.00    0.0000
  127                  0.00    0.0000      0.00    0.0000
  128                103.80    0.5182      0.40    0.0148
  131                103.80    0.6469      0.68    0.0145
  132                103.80    0.5182      0.40    0.0148
  134                  0.00    0.0000      0.00    0.0000
  136                 53.80    0.5227      0.61    0.0158
  137                 23.00    1.4122     11.02    0.0156
  138                 23.00    0.5733      1.26    0.0170
  139                  0.00    0.0000      0.00    0.0000
  14                  33.00    0.5173      0.79    0.0166
  142                 -0.00    0.0000      0.00    0.0000
  143                  0.00    0.0000      0.00    0.0000
  144                  0.00    0.0000      0.00    0.0000
  145                  0.00    0.0000      0.00    0.0000
  148                 27.00    0.1683      0.06    0.0191
  149                 27.00    0.1683      0.06    0.0190
  15                  86.00    1.3481      4.49    0.0138
  150                  0.00    0.0000      0.00    0.0000
  151                  0.00    0.0000      0.00    0.0000
  156                  0.00    0.0000      0.00    0.0000
  16                   0.00    0.0000      0.00    0.0000
  160                 45.30    0.7101      1.41    0.0156
  162                  0.00    0.0000      0.00    0.0000
  171                 26.00    1.0105      4.58    0.0159
  172                 26.00    0.4076      0.52    0.0174
  175                  0.00    0.0000      0.00    0.0000
  181                  0.00    0.0000      0.00    0.0000
  183                  0.00    0.0000      0.00    0.0000
  184                  0.00    0.0000      0.00    0.0000
  185                  0.00    0.0000      0.00    0.0000
  19                  50.00    1.9432     14.97    0.0141
  2                  160.90    0.4353      0.20    0.0145
  20                   0.00    0.0000      0.00    0.0000
  21                  -0.00    0.0000      0.00    0.0000
  22                 158.00    0.5819      0.41    0.0141
  23                   0.00    0.0000      0.00    0.0000
  24                   0.00    0.0000      0.00    0.0000
  25                  -0.00    0.0000      0.00    0.0000
  26                 125.00    0.6241      0.56    0.0143
  27                  -0.00    0.0000      0.00    0.0000
  28                  73.30    0.7122      1.06    0.0149
  29                 129.80    0.3512      0.14    0.0151
  3                   45.30    0.7101      1.41    0.0156
  30                  79.00    1.2384      3.85    0.0140
  31                 441.30    0.7206      0.38    0.0126
  32                 158.00    0.7888      0.86    0.0137
  33                 204.30    0.5528      0.31    0.0138
  34                 362.30    0.7524      0.47    0.0128
  36                  39.10    0.6129      1.08    0.0160
  37                   0.00    0.0000      0.00    0.0000
  38                  18.00    0.1122      0.03    0.0207
  4                  125.00    0.7790      0.96    0.0140
  40                  18.00    0.6996      2.36    0.0171
  41                 164.30    0.4445      0.21    0.0144
  42                   0.00    0.0000      0.00    0.0000
  43                 204.30    0.5528      0.31    0.0138
  44                  41.80    1.0420      3.71    0.0152
  45                  41.80    1.6245     10.81    0.0146
  46                  40.00    0.9971      3.43    0.0153
  47                  88.00    0.3241      0.14    0.0158
  48                  88.00    0.3241      0.14    0.0158
  5                    0.00    0.0000      0.00    0.0000
  50                   0.00    0.0000      0.00    0.0000
  51                 441.30    0.9165      0.67    0.0123
  52                   0.00    0.0000      0.00    0.0000
  53                  18.00    0.0899      0.02    0.0213
  54                 675.50    0.6219      0.21    0.0123
  56                  50.00    0.7838      1.68    0.0153
  57                   0.00    0.0000      0.00    0.0000
  58                   0.00    0.0000      0.00    0.0000
  59                   0.00    0.0000      0.00    0.0000
  6                    0.00    0.0000      0.00    0.0000
  60                   0.00    0.0000      0.00    0.0000
  61                  73.30    0.7122      1.06    0.0149
  62                  73.30    0.7122      1.06    0.0149
  63                 514.60    0.8403      0.50    0.0123
  64                  -0.00    0.0000      0.00    0.0000
  65                   0.00    0.0000      0.00    0.0000
  66                  73.30    0.3660      0.22    0.0160
  67                  45.30    0.4401      0.45    0.0163
  68                  26.00    1.5965     13.75    0.0153
  69                  73.30    0.4568      0.36    0.0155
  7                    0.00    0.0000      0.00    0.0000
  70                  45.30    0.7101      1.41    0.0156
  71                   0.00    0.0000      0.00    0.0000
  72                   0.00    0.0000      0.00    0.0000
  73                   0.00    0.0000      0.00    0.0000
  74                 675.50    0.6219      0.20    0.0122
  76                   0.00    0.0000      0.00    0.0000
  77                   0.00    0.0000      0.00    0.0000
  78                  70.00    1.0973      3.09    0.0144
  79                   0.00    0.0000      0.00    0.0000
  8                    0.00    0.0000      0.00    0.0000
  80                  88.00    0.2381      0.07    0.0162
  81                   0.00    0.0000      0.00    0.0000
  82                  18.00    0.1122      0.03    0.0210
  83                   0.00    0.0000      0.00    0.0000
  84                  57.10    0.8951      2.14    0.0149
  86                   0.00    0.0000      0.00    0.0000
  87                  -0.00    0.0000      0.00    0.0000
  88                  -0.00    0.0000      0.00    0.0000
  89                  29.00    1.1271      5.57    0.0156
  9                  675.50    0.6219      0.21    0.0123
  90                  45.30    0.7101      1.41    0.0156
  92                   0.00    0.0000      0.00    0.0000
  93                   0.00    0.0000      0.00    0.0000
  94                  -0.00    0.0000      0.00    0.0000
  95                   0.00    0.0000      0.00    0.0000
  96                  30.80    0.7678      2.14    0.0161
  97                  23.00    1.4122     11.02    0.0156
  98                   0.00    0.0000      0.00    0.0000
  99                   0.00    0.0000      0.00    0.0000
  55                  76.80    0.7462      1.16    0.0147
  101                  0.00    0.0000      0.00    0.0000
  108                 76.80    0.7462      1.16    0.0148
  109                  0.00    0.0000      0.00    0.0000
  49                  -0.00    0.0000      0.00    0.0000
  85                -125.00    0.7790      0.96    0.0140
  91                 -39.00    0.6113      1.07    0.0161
  110                  0.00    0.0000      0.00    0.0000
  111                  0.00    0.0000      0.00    0.0000
  17                   0.00    0.0000      0.00    0.0000
  18                   0.00    0.0000      0.00    0.0000
  39                   0.00    0.0000      0.00    0.0000
  75                   0.00    0.0000      0.00    0.0000
  114                 -0.00    0.0000      0.00    0.0000
   
  Analysis ended Tue Jun  1 20:53:36 2021
