  Page 1                                    Tue Jun  1 20:53:46 2021

  ******************************************************************
  *                           E P A N E T                          *
  *                   Hydraulic and Water Quality                  *
  *                   Analysis for Pipe Networks                   *
  *                         Version 2.00.12                        *
  ******************************************************************
  
  C:\Mario\Violada 
   
      Input Data File ................... /home/borja/Escritorio/nery/epanet-telecontrol/flowpath/tmp.inp
      Number of Junctions................ 146
      Number of Reservoirs............... 1
      Number of Tanks ................... 0
      Number of Pipes ................... 146
      Number of Pumps ................... 0
      Number of Valves .................. 0
      Headloss Formula .................. Darcy-Weisbach
      Hydraulic Timestep ................ 1.00 hrs
      Hydraulic Accuracy ................ 0.001000
      Status Check Frequency ............ 2
      Maximum Trials Checked ............ 10
      Damping Limit Threshold ........... 0.000000
      Maximum Trials .................... 40
      Quality Analysis .................. None
      Specific Gravity .................. 1.00
      Relative Kinematic Viscosity ...... 1.00
      Relative Chemical Diffusivity ..... 1.00
      Demand Multiplier ................. 1.00
      Total Duration .................... 0.00 hrs
      Reporting Criteria:
         Selected Nodes
         No Links
         with Velocity above 3.00 m/s
   
  Analysis begun Tue Jun  1 20:53:46 2021

   
  Node Results:
  ----------------------------------------------
                     Demand      Head  Pressure
  Node                  L/s         m         m
  ----------------------------------------------
  213               0.000000e+00   4.478095e+02   6.490947e+01
  241               0.000000e+00   4.471924e+02   7.395238e+01
  245               0.000000e+00   4.473875e+02   9.726746e+01
  256               0.000000e+00   4.481220e+02   8.191204e+01
  276               0.000000e+00   4.478279e+02   6.573788e+01
  277               0.000000e+00   4.454271e+02   6.516706e+01
  286               0.000000e+00   4.451672e+02   6.333717e+01
  296               0.000000e+00   4.467985e+02   6.563851e+01
   
   
  Link Results:
  --------------------------------------------------------
                       Flow  Velocity  Headloss  F-Factor
  Link                  L/s       m/s    /1000m          
  --------------------------------------------------------
  1                    0.00    0.0000      0.00    0.0000
  10                  20.00    0.1943      0.10    0.0194
  100                  0.00    0.0000      0.00    0.0000
  102                 24.00    0.3762      0.45    0.0177
  103                 24.00    0.5983      1.36    0.0169
  104                 30.80    0.4828      0.70    0.0168
  105                  0.00    0.0000      0.00    0.0000
  106                 26.80    0.6681      1.66    0.0165
  107                119.00    0.7416      0.88    0.0142
  11                  20.00    0.4986      0.98    0.0175
  112                167.80    0.6179      0.46    0.0139
  113                  0.00    0.0000      0.00    0.0000
  117                256.70    0.6945      0.48    0.0133
  118                167.80    0.6179      0.46    0.0140
  119                167.80    0.6179      0.46    0.0139
  12                   0.00    0.0000      0.00    0.0000
  120                 18.00    0.2822      0.27    0.0188
  122                  0.00    0.0000      0.00    0.0000
  123                  0.00    0.0000      0.00    0.0000
  126                 18.00    0.4487      0.81    0.0179
  127                 18.00    0.4487      0.81    0.0179
  128                167.80    0.8378      0.96    0.0136
  131                149.80    0.9336      1.33    0.0136
  132                167.80    0.8378      0.96    0.0136
  134                 23.00    1.4122     11.02    0.0156
  136                 30.80    0.2993      0.22    0.0177
  137                  0.00    0.0000      0.00    0.0000
  138                  0.00    0.0000      0.00    0.0000
  139                 -0.00    0.0000      0.00    0.0000
  14                  29.00    0.4546      0.63    0.0170
  142                 -0.00    0.0000      0.00    0.0000
  143                 -0.00    0.0000      0.00    0.0000
  144                  0.00    0.0000      0.00    0.0000
  145                 50.00    0.4858      0.53    0.0160
  148                101.00    0.6294      0.65    0.0146
  149                119.00    0.7416      0.88    0.0142
  15                   0.00    0.0000      0.00    0.0000
  150                  0.00    0.0000      0.00    0.0000
  151                  0.00    0.0000      0.00    0.0000
  156                 18.00    1.1052      7.08    0.0164
  16                  29.00    0.7229      1.92    0.0163
  160                 49.00    0.7681      1.62    0.0154
  162                 21.00    0.3292      0.35    0.0182
  171                 28.00    1.0882      5.23    0.0157
  172                 28.00    0.4389      0.59    0.0172
  175                  0.00    0.0000      0.00    0.0000
  181                 71.20    1.7749      9.76    0.0137
  183                  0.00    0.0000      0.00    0.0000
  184                 18.00    0.2822      0.27    0.0188
  185                 50.00    0.7838      1.68    0.0153
  19                  50.00    1.9432     14.97    0.0141
  2                  256.70    0.6945      0.48    0.0133
  20                   0.00    0.0000      0.00    0.0000
  21                  26.00    1.0105      4.58    0.0159
  22                 167.00    0.6150      0.46    0.0140
  23                   0.00    0.0000      0.00    0.0000
  24                  26.00    0.4076      0.52    0.0174
  25                  26.00    0.4076      0.52    0.0174
  26                 138.00    0.6890      0.67    0.0141
  27                   0.00    0.0000      0.00    0.0000
  28                  70.10    0.6811      0.98    0.0150
  29                 135.00    0.3653      0.15    0.0150
  3                   49.00    0.7681      1.62    0.0154
  30                  50.00    0.7838      1.68    0.0153
  31                 378.00    0.6173      0.28    0.0130
  32                 167.00    0.8338      0.95    0.0136
  33                 135.00    0.3653      0.15    0.0149
  34                 328.00    0.6812      0.39    0.0130
  36                  88.90    1.3935      4.77    0.0137
  37                   0.00    0.0000      0.00    0.0000
  38                   0.00    0.0000      0.00    0.0000
  4                   38.00    0.2368      0.11    0.0177
  40                   0.00    0.0000      0.00    0.0000
  41                 135.00    0.3653      0.15    0.0149
  42                   0.00    0.0000      0.00    0.0000
  43                 161.00    0.4356      0.20    0.0145
  44                   0.00    0.0000      0.00    0.0000
  45                   0.00    0.0000      0.00    0.0000
  46                   0.00    0.0000      0.00    0.0000
  47                 135.00    0.4972      0.31    0.0145
  48                 114.00    0.4198      0.23    0.0150
  5                    0.00    0.0000      0.00    0.0000
  50                   0.00    0.0000      0.00    0.0000
  51                 378.00    0.7850      0.51    0.0127
  52                  -0.00    0.0000      0.00    0.0000
  53                  44.00    0.2197      0.09    0.0176
  54                 745.70    0.6865      0.25    0.0121
  56                  50.00    0.7838      1.68    0.0153
  57                 109.50    1.7165      6.98    0.0132
  58                   0.00    0.0000      0.00    0.0000
  59                 109.50    1.7165      6.98    0.0132
  6                  100.00    0.6232      0.64    0.0146
  60                   0.00    0.0000      0.00    0.0000
  61                  93.00    0.9036      1.64    0.0142
  62                  70.10    0.6811      0.98    0.0150
  63                 489.00    0.7985      0.46    0.0124
  64                  -0.00    0.0000      0.00    0.0000
  65                   0.00    0.0000      0.00    0.0000
  66                 111.00    0.5542      0.45    0.0147
  67                  70.10    0.6811      0.98    0.0150
  68                   0.00    0.0000      0.00    0.0000
  69                 111.00    0.6918      0.77    0.0143
  7                    0.00    0.0000      0.00    0.0000
  70                  28.00    0.4389      0.59    0.0172
  71                  26.80    1.6456     14.53    0.0152
  72                  -0.00    0.0000      0.00    0.0000
  73                   0.00    0.0000      0.00    0.0000
  74                 745.70    0.6865      0.25    0.0121
  76                   0.00    0.0000      0.00    0.0000
  77                  18.00    0.1122      0.03    0.0210
  78                  70.00    1.0973      3.09    0.0144
  79                  21.00    1.2894      9.35    0.0159
  8                    0.00    0.0000      0.00    0.0000
  80                 135.00    0.3653      0.15    0.0149
  81                  32.00    0.7977      2.29    0.0160
  82                   0.00    0.0000      0.00    0.0000
  83                   0.00    0.0000      0.00    0.0000
  84                  88.90    1.3935      4.77    0.0137
  86                  21.10    1.2956      9.43    0.0159
  87                   0.00    0.0000      0.00    0.0000
  88                   0.00    0.0000      0.00    0.0000
  89                   0.00    0.0000      0.00    0.0000
  9                  855.20    0.7873      0.32    0.0118
  90                  49.00    0.7681      1.62    0.0154
  92                  26.00    0.1620      0.06    0.0195
  93                   0.00    0.0000      0.00    0.0000
  94                   0.00    0.0000      0.00    0.0000
  95                  18.00    0.6996      2.36    0.0171
  96                  30.80    0.7678      2.14    0.0161
  97                   0.00    0.0000      0.00    0.0000
  98                   0.00    0.0000      0.00    0.0000
  99                   0.00    0.0000      0.00    0.0000
  55                  30.80    0.2993      0.22    0.0177
  101                 -0.00    0.0000      0.00    0.0000
  108                 30.80    0.2993      0.22    0.0177
  109                 32.00    0.7977      2.29    0.0160
  49                  -0.00    0.0000      0.00    0.0000
  85                 -20.00    0.1246      0.04    0.0203
  91                  -0.00    0.0000      0.00    0.0000
  110                  0.00    0.0000      0.00    0.0000
  111                  0.00    0.0000      0.00    0.0000
  17                  32.00    1.2437      6.66    0.0153
  18                   0.00    0.0000      0.00    0.0000
  39                  28.00    1.7193     15.73    0.0150
  75                   0.00    0.0000      0.00    0.0000
  114                 -0.00    0.0000      0.00    0.0000
   
  Analysis ended Tue Jun  1 20:53:46 2021
