  Page 1                                    Tue Jun  1 20:53:48 2021

  ******************************************************************
  *                           E P A N E T                          *
  *                   Hydraulic and Water Quality                  *
  *                   Analysis for Pipe Networks                   *
  *                         Version 2.00.12                        *
  ******************************************************************
  
  C:\Mario\Violada 
   
      Input Data File ................... /home/borja/Escritorio/nery/epanet-telecontrol/flowpath/tmp.inp
      Number of Junctions................ 146
      Number of Reservoirs............... 1
      Number of Tanks ................... 0
      Number of Pipes ................... 146
      Number of Pumps ................... 0
      Number of Valves .................. 0
      Headloss Formula .................. Darcy-Weisbach
      Hydraulic Timestep ................ 1.00 hrs
      Hydraulic Accuracy ................ 0.001000
      Status Check Frequency ............ 2
      Maximum Trials Checked ............ 10
      Damping Limit Threshold ........... 0.000000
      Maximum Trials .................... 40
      Quality Analysis .................. None
      Specific Gravity .................. 1.00
      Relative Kinematic Viscosity ...... 1.00
      Relative Chemical Diffusivity ..... 1.00
      Demand Multiplier ................. 1.00
      Total Duration .................... 0.00 hrs
      Reporting Criteria:
         Selected Nodes
         No Links
         with Velocity above 3.00 m/s
   
  Analysis begun Tue Jun  1 20:53:48 2021

   
  Node Results:
  ----------------------------------------------
                     Demand      Head  Pressure
  Node                  L/s         m         m
  ----------------------------------------------
  213               0.000000e+00   4.489712e+02   6.607122e+01
  241               0.000000e+00   4.480844e+02   7.484435e+01
  245               0.000000e+00   4.463633e+02   9.624334e+01
  256               0.000000e+00   4.487837e+02   8.257373e+01
  276               0.000000e+00   4.487000e+02   6.660994e+01
  277               0.000000e+00   4.488284e+02   6.856842e+01
  286               0.000000e+00   4.489862e+02   6.715625e+01
  296               0.000000e+00   4.489495e+02   6.778945e+01
   
   
  Link Results:
  --------------------------------------------------------
                       Flow  Velocity  Headloss  F-Factor
  Link                  L/s       m/s    /1000m          
  --------------------------------------------------------
  1                    0.00    0.0000      0.00    0.0000
  10                   0.00    0.0000      0.00    0.0000
  100                  0.00    0.0000      0.00    0.0000
  102                  0.00    0.0000      0.00    0.0000
  103                  0.00    0.0000      0.00    0.0000
  104                  0.00    0.0000      0.00    0.0000
  105                  0.00    0.0000      0.00    0.0000
  106                  0.00    0.0000      0.00    0.0000
  107                 21.60    0.1346      0.04    0.0199
  11                   0.00    0.0000      0.00    0.0000
  112                 21.60    0.0795      0.01    0.0212
  113                  0.00    0.0000      0.00    0.0000
  117                 21.60    0.0584      0.01    0.0220
  118                 21.60    0.0795      0.01    0.0212
  119                 21.60    0.0795      0.01    0.0226
  12                   0.00    0.0000      0.00    0.0000
  120                  0.00    0.0000      0.00    0.0000
  122                  0.00    0.0000      0.00    0.0000
  123                 21.60    0.3386      0.37    0.0182
  126                  0.00    0.0000      0.00    0.0000
  127                  0.00    0.0000      0.00    0.0000
  128                 21.60    0.1078      0.02    0.0205
  131                 21.60    0.1346      0.04    0.0219
  132                 21.60    0.1078      0.02    0.0202
  134                  0.00    0.0000      0.00    0.0000
  136                  0.00    0.0000      0.00    0.0000
  137                  0.00    0.0000      0.00    0.0000
  138                  0.00    0.0000      0.00    0.0000
  139                  0.00    0.0000      0.00    0.0000
  14                  22.00    0.3449      0.38    0.0180
  142                 -0.00    0.0000      0.00    0.0000
  143                  0.00    0.0000      0.00    0.0000
  144                  0.00    0.0000      0.00    0.0000
  145                 21.60    0.2099      0.12    0.0190
  148                 21.60    0.1346      0.04    0.0201
  149                 21.60    0.1346      0.04    0.0200
  15                  86.00    1.3481      4.49    0.0138
  150                 21.60    0.3386      0.37    0.0181
  151                 21.60    1.3263      9.83    0.0158
  156                  0.00    0.0000      0.00    0.0000
  16                  22.00    0.5484      1.17    0.0172
  160                  0.00    0.0000      0.00    0.0000
  162                  0.00    0.0000      0.00    0.0000
  171                  0.00    0.0000      0.00    0.0000
  172                  0.00    0.0000      0.00    0.0000
  175                  0.00    0.0000      0.00    0.0000
  181                  0.00    0.0000      0.00    0.0000
  183                  0.00    0.0000      0.00    0.0000
  184                  0.00    0.0000      0.00    0.0000
  185                  0.00    0.0000      0.00    0.0000
  19                   0.00    0.0000      0.00    0.0000
  2                   21.60    0.0584      0.01    0.0219
  20                   0.00    0.0000      0.00    0.0000
  21                  -0.00    0.0000      0.00    0.0000
  22                 108.00    0.3977      0.21    0.0152
  23                  22.00    0.8550      3.39    0.0165
  24                  -0.00    0.0000      0.00    0.0000
  25                  -0.00    0.0000      0.00    0.0000
  26                  86.00    0.4294      0.29    0.0154
  27                  -0.00    0.0000      0.00    0.0000
  28                  21.10    0.2050      0.11    0.0191
  29                  70.00    0.1894      0.05    0.0170
  3                    0.00    0.0000      0.00    0.0000
  30                   0.00    0.0000      0.00    0.0000
  31                 178.00    0.2907      0.07    0.0149
  32                 108.00    0.5392      0.43    0.0147
  33                  70.00    0.1894      0.05    0.0170
  34                 178.00    0.3697      0.13    0.0145
  36                   0.00    0.0000      0.00    0.0000
  37                   0.00    0.0000      0.00    0.0000
  38                   0.00    0.0000      0.00    0.0000
  4                   86.00    0.5360      0.49    0.0151
  40                   0.00    0.0000      0.00    0.0000
  41                  70.00    0.1894      0.05    0.0170
  42                   0.00    0.0000      0.00    0.0000
  43                  70.00    0.1894      0.05    0.0170
  44                   0.00    0.0000      0.00    0.0000
  45                   0.00    0.0000      0.00    0.0000
  46                   0.00    0.0000      0.00    0.0000
  47                  70.00    0.2578      0.09    0.0165
  48                  70.00    0.2578      0.10    0.0165
  5                   22.00    1.3508     10.16    0.0157
  50                   0.00    0.0000      0.00    0.0000
  51                 178.00    0.3697      0.13    0.0146
  52                   0.00    0.0000      0.00    0.0000
  53                   0.00    0.0000      0.00    0.0000
  54                 243.82    0.2245      0.03    0.0148
  56                   0.00    0.0000      0.00    0.0000
  57                   0.00    0.0000      0.00    0.0000
  58                   0.00    0.0000      0.00    0.0000
  59                   0.00    0.0000      0.00    0.0000
  6                    0.00    0.0000      0.00    0.0000
  60                   0.00    0.0000      0.00    0.0000
  61                  21.10    0.2050      0.11    0.0191
  62                  21.10    0.2050      0.11    0.0191
  63                 222.22    0.3629      0.11    0.0143
  64                   0.00    0.0000      0.00    0.0000
  65                   0.00    0.0000      0.00    0.0000
  66                  44.22    0.2208      0.09    0.0177
  67                  21.10    0.2050      0.11    0.0191
  68                  -0.00    0.0000      0.00    0.0000
  69                  21.10    0.1315      0.04    0.0201
  7                    0.00    0.0000      0.00    0.0000
  70                   0.00    0.0000      0.00    0.0000
  71                   0.00    0.0000      0.00    0.0000
  72                  -0.00    0.0000      0.00    0.0000
  73                   0.00    0.0000      0.00    0.0000
  74                 243.82    0.2245      0.03    0.0149
  76                   0.00    0.0000      0.00    0.0000
  77                   0.00    0.0000      0.00    0.0000
  78                  70.00    1.0973      3.09    0.0144
  79                   0.00    0.0000      0.00    0.0000
  8                    0.00    0.0000      0.00    0.0000
  80                  70.00    0.1894      0.05    0.0170
  81                   0.00    0.0000      0.00    0.0000
  82                   0.00    0.0000      0.00    0.0000
  83                   0.00    0.0000      0.00    0.0000
  84                   0.00    0.0000      0.00    0.0000
  86                  21.10    1.2956      9.43    0.0159
  87                   0.00    0.0000      0.00    0.0000
  88                   0.00    0.0000      0.00    0.0000
  89                   0.00    0.0000      0.00    0.0000
  9                  243.82    0.2245      0.03    0.0148
  90                   0.00    0.0000      0.00    0.0000
  92                   0.00    0.0000      0.00    0.0000
  93                   0.00    0.0000      0.00    0.0000
  94                   0.00    0.0000      0.00    0.0000
  95                   0.00    0.0000      0.00    0.0000
  96                   0.00    0.0000      0.00    0.0000
  97                   0.00    0.0000      0.00    0.0000
  98                   0.00    0.0000      0.00    0.0000
  99                   0.00    0.0000      0.00    0.0000
  55                   0.00    0.0000      0.00    0.0000
  101                  0.00    0.0000      0.00    0.0000
  108                  0.00    0.0000      0.00    0.0000
  109                  0.00    0.0000      0.00    0.0000
  49                  -0.00    0.0000      0.00    0.0000
  85                 -86.00    0.5360      0.49    0.0151
  91                  -0.00    0.0000      0.00    0.0000
  110                  0.00    0.0000      0.00    0.0000
  111                  0.00    0.0000      0.00    0.0000
  17                   0.00    0.0000      0.00    0.0000
  18                   0.00    0.0000      0.00    0.0000
  39                   0.00    0.0000      0.00    0.0000
  75                   0.00    0.0000      0.00    0.0000
  114                 -0.00    0.0000      0.00    0.0000
   
  Analysis ended Tue Jun  1 20:53:48 2021
