  Page 1                                    Tue Jun  1 20:53:50 2021

  ******************************************************************
  *                           E P A N E T                          *
  *                   Hydraulic and Water Quality                  *
  *                   Analysis for Pipe Networks                   *
  *                         Version 2.00.12                        *
  ******************************************************************
  
  C:\Mario\Violada 
   
      Input Data File ................... /home/borja/Escritorio/nery/epanet-telecontrol/flowpath/tmp.inp
      Number of Junctions................ 146
      Number of Reservoirs............... 1
      Number of Tanks ................... 0
      Number of Pipes ................... 146
      Number of Pumps ................... 0
      Number of Valves .................. 0
      Headloss Formula .................. Darcy-Weisbach
      Hydraulic Timestep ................ 1.00 hrs
      Hydraulic Accuracy ................ 0.001000
      Status Check Frequency ............ 2
      Maximum Trials Checked ............ 10
      Damping Limit Threshold ........... 0.000000
      Maximum Trials .................... 40
      Quality Analysis .................. None
      Specific Gravity .................. 1.00
      Relative Kinematic Viscosity ...... 1.00
      Relative Chemical Diffusivity ..... 1.00
      Demand Multiplier ................. 1.00
      Total Duration .................... 0.00 hrs
      Reporting Criteria:
         Selected Nodes
         No Links
         with Velocity above 3.00 m/s
   
  Analysis begun Tue Jun  1 20:53:50 2021

   
  Node Results:
  ----------------------------------------------
                     Demand      Head  Pressure
  Node                  L/s         m         m
  ----------------------------------------------
  213               0.000000e+00   4.481965e+02   6.529653e+01
  241               0.000000e+00   4.458911e+02   7.265111e+01
  245               0.000000e+00   4.464336e+02   9.631362e+01
  256               3.450000e+01   4.481169e+02   8.190694e+01
  276               0.000000e+00   4.480752e+02   6.598524e+01
  277               0.000000e+00   4.485177e+02   6.825767e+01
  286               0.000000e+00   4.487922e+02   6.696222e+01
  296               2.600000e+01   4.416899e+02   6.052988e+01
   
   
  Link Results:
  --------------------------------------------------------
                       Flow  Velocity  Headloss  F-Factor
  Link                  L/s       m/s    /1000m          
  --------------------------------------------------------
  1                   48.70    1.2140      4.89    0.0147
  10                  74.00    0.7190      1.08    0.0149
  100                  0.00    0.0000      0.00    0.0000
  102                 47.50    0.7446      1.53    0.0155
  103                 26.00    0.6481      1.57    0.0166
  104                 30.80    0.4828      0.70    0.0168
  105                  0.00    0.0000      0.00    0.0000
  106                  0.00    0.0000      0.00    0.0000
  107                 47.50    0.2960      0.17    0.0169
  11                   0.00    0.0000      0.00    0.0000
  112                 96.30    0.3546      0.17    0.0155
  113                 48.70    0.7634      1.60    0.0154
  117                171.00    0.4627      0.23    0.0143
  118                122.30    0.4504      0.26    0.0148
  119                171.00    0.6297      0.48    0.0139
  12                   0.00    0.0000      0.00    0.0000
  120                 18.00    0.2822      0.27    0.0188
  122                 18.00    0.6996      2.36    0.0171
  123                  0.00    0.0000      0.00    0.0000
  126                 18.00    0.4487      0.81    0.0179
  127                 18.00    0.4487      0.81    0.0179
  128                 96.30    0.4808      0.35    0.0150
  131                 78.30    0.4880      0.41    0.0152
  132                 96.30    0.4808      0.35    0.0151
  134                  0.00    0.0000      0.00    0.0000
  136                 30.80    0.2993      0.22    0.0177
  137                  0.00    0.0000      0.00    0.0000
  138                  0.00    0.0000      0.00    0.0000
  139                  0.00    0.0000      0.00    0.0000
  14                  62.00    0.9719      2.48    0.0147
  142                 -0.00    0.0000      0.00    0.0000
  143                  0.00    0.0000      0.00    0.0000
  144                 26.00    1.0105      4.58    0.0159
  145                  0.00    0.0000      0.00    0.0000
  148                 47.50    0.2960      0.17    0.0169
  149                 47.50    0.2960      0.17    0.0169
  15                   0.00    0.0000      0.00    0.0000
  150                  0.00    0.0000      0.00    0.0000
  151                  0.00    0.0000      0.00    0.0000
  156                 -0.00    0.0000      0.00    0.0000
  16                  29.00    0.7229      1.92    0.0163
  160                  0.00    0.0000      0.00    0.0000
  162                  0.00    0.0000      0.00    0.0000
  171                  0.00    0.0000      0.00    0.0000
  172                  0.00    0.0000      0.00    0.0000
  175                  0.00    0.0000      0.00    0.0000
  181                 -0.00    0.0000      0.00    0.0000
  183                 18.00    0.6996      2.36    0.0171
  184                  0.00    0.0000      0.00    0.0000
  185                  0.00    0.0000      0.00    0.0000
  19                   0.00    0.0000      0.00    0.0000
  2                  171.00    0.4627      0.23    0.0143
  20                  -0.00    0.0000      0.00    0.0000
  21                  18.00    0.6996      2.36    0.0171
  22                 236.00    0.8691      0.86    0.0131
  23                   0.00    0.0000      0.00    0.0000
  24                  18.00    0.2822      0.27    0.0188
  25                  18.00    0.2822      0.27    0.0188
  26                 174.00    0.8687      1.03    0.0135
  27                  18.00    0.6996      2.36    0.0171
  28                  18.00    0.1749      0.09    0.0198
  29                  67.80    0.1834      0.04    0.0171
  3                   18.00    0.2822      0.27    0.0188
  30                   0.00    0.0000      0.00    0.0000
  31                 396.30    0.6472      0.31    0.0129
  32                 236.00    1.1783      1.79    0.0128
  33                 142.30    0.3850      0.16    0.0148
  34                 396.30    0.8230      0.55    0.0126
  36                   0.00    0.0000      0.00    0.0000
  37                   0.00    0.0000      0.00    0.0000
  38                   0.00    0.0000      0.00    0.0000
  4                   74.00    0.4612      0.37    0.0155
  40                   0.00    0.0000      0.00    0.0000
  41                 102.30    0.2768      0.09    0.0158
  42                  -0.00    0.0000      0.00    0.0000
  43                 160.30    0.4337      0.20    0.0145
  44                  41.80    1.0420      3.71    0.0152
  45                  41.80    1.6245     10.81    0.0146
  46                  40.00    0.9971      3.43    0.0153
  47                  26.00    0.0957      0.02    0.0203
  48                  26.00    0.0957      0.02    0.0202
  5                    0.00    0.0000      0.00    0.0000
  50                   0.00    0.0000      0.00    0.0000
  51                 396.30    0.8230      0.55    0.0126
  52                   0.00    0.0000      0.00    0.0000
  53                  26.00    0.1298      0.03    0.0197
  54                 693.70    0.6387      0.22    0.0123
  56                   0.00    0.0000      0.00    0.0000
  57                   0.00    0.0000      0.00    0.0000
  58                   0.00    0.0000      0.00    0.0000
  59                   0.00    0.0000      0.00    0.0000
  6                  100.00    0.6232      0.64    0.0146
  60                   0.00    0.0000      0.00    0.0000
  61                  18.00    0.1749      0.09    0.0198
  62                  18.00    0.1749      0.09    0.0198
  63                 436.30    0.7125      0.37    0.0126
  64                  -0.00    0.0000      0.00    0.0000
  65                   0.00    0.0000      0.00    0.0000
  66                  40.00    0.1997      0.07    0.0179
  67                  18.00    0.1749      0.09    0.0198
  68                   0.00    0.0000      0.00    0.0000
  69                  40.00    0.2493      0.12    0.0175
  7                    0.00    0.0000      0.00    0.0000
  70                   0.00    0.0000      0.00    0.0000
  71                   0.00    0.0000      0.00    0.0000
  72                  -0.00    0.0000      0.00    0.0000
  73                  86.40    1.3544      4.53    0.0138
  74                 693.70    0.6387      0.21    0.0121
  76                   0.00    0.0000      0.00    0.0000
  77                  -0.00    0.0000      0.00    0.0000
  78                   0.00    0.0000      0.00    0.0000
  79                   0.00    0.0000      0.00    0.0000
  8                    0.00    0.0000      0.00    0.0000
  80                  26.00    0.0703      0.01    0.0211
  81                   0.00    0.0000      0.00    0.0000
  82                   0.00    0.0000      0.00    0.0000
  83                   0.00    0.0000      0.00    0.0000
  84                   0.00    0.0000      0.00    0.0000
  86                   0.00    0.0000      0.00    0.0000
  87                  22.00    1.3508     10.17    0.0157
  88                   0.00    0.0000      0.00    0.0000
  89                   0.00    0.0000      0.00    0.0000
  9                  693.70    0.6387      0.22    0.0122
  90                  18.00    0.2822      0.27    0.0188
  92                  26.00    0.1620      0.06    0.0189
  93                  26.00    1.5965     13.75    0.0153
  94                   0.00    0.0000      0.00    0.0000
  95                   0.00    0.0000      0.00    0.0000
  96                  30.80    0.7678      2.14    0.0161
  97                   0.00    0.0000      0.00    0.0000
  98                  31.20    1.9157     19.14    0.0147
  99                  -0.00    0.0000      0.00    0.0000
  55                  30.80    0.2993      0.22    0.0176
  101                  0.00    0.0000      0.00    0.0000
  108                 30.80    0.2993      0.22    0.0177
  109                  0.00    0.0000      0.00    0.0000
  49                  -0.00    0.0000      0.00    0.0000
  85                 -74.00    0.4612      0.37    0.0155
  91                 -39.00    0.6113      1.07    0.0161
  110                  0.00    0.0000      0.00    0.0000
  111                  0.00    0.0000      0.00    0.0000
  17                  -0.00    0.0000      0.00    0.0000
  18                  -0.00    0.0000      0.00    0.0000
  39                   0.00    0.0000      0.00    0.0000
  75                   0.00    0.0000      0.00    0.0000
  114                 -0.00    0.0000      0.00    0.0000
   
  Analysis ended Tue Jun  1 20:53:50 2021
