  Page 1                                    Tue Jun  1 20:53:53 2021

  ******************************************************************
  *                           E P A N E T                          *
  *                   Hydraulic and Water Quality                  *
  *                   Analysis for Pipe Networks                   *
  *                         Version 2.00.12                        *
  ******************************************************************
  
  C:\Mario\Violada 
   
      Input Data File ................... /home/borja/Escritorio/nery/epanet-telecontrol/flowpath/tmp.inp
      Number of Junctions................ 146
      Number of Reservoirs............... 1
      Number of Tanks ................... 0
      Number of Pipes ................... 146
      Number of Pumps ................... 0
      Number of Valves .................. 0
      Headloss Formula .................. Darcy-Weisbach
      Hydraulic Timestep ................ 1.00 hrs
      Hydraulic Accuracy ................ 0.001000
      Status Check Frequency ............ 2
      Maximum Trials Checked ............ 10
      Damping Limit Threshold ........... 0.000000
      Maximum Trials .................... 40
      Quality Analysis .................. None
      Specific Gravity .................. 1.00
      Relative Kinematic Viscosity ...... 1.00
      Relative Chemical Diffusivity ..... 1.00
      Demand Multiplier ................. 1.00
      Total Duration .................... 0.00 hrs
      Reporting Criteria:
         Selected Nodes
         No Links
         with Velocity above 3.00 m/s
   
  Analysis begun Tue Jun  1 20:53:53 2021

   
  Node Results:
  ----------------------------------------------
                     Demand      Head  Pressure
  Node                  L/s         m         m
  ----------------------------------------------
  213               0.000000e+00   4.487565e+02   6.585654e+01
  241               2.800000e+01   4.465324e+02   7.329241e+01
  245               0.000000e+00   4.487724e+02   9.865242e+01
  256               0.000000e+00   4.489478e+02   8.273782e+01
  276               0.000000e+00   4.489478e+02   6.685782e+01
  277               0.000000e+00   4.489787e+02   6.871873e+01
  286               0.000000e+00   4.489728e+02   6.714282e+01
  296               0.000000e+00   4.488760e+02   6.771604e+01
   
   
  Link Results:
  --------------------------------------------------------
                       Flow  Velocity  Headloss  F-Factor
  Link                  L/s       m/s    /1000m          
  --------------------------------------------------------
  1                    0.00    0.0000      0.00    0.0000
  10                  28.00    0.2721      0.19    0.0180
  100                  0.00    0.0000      0.00    0.0000
  102                  0.00    0.0000      0.00    0.0000
  103                 -0.00    0.0000      0.00    0.0000
  104                 43.00    0.6740      1.28    0.0158
  105                  0.00    0.0000      0.00    0.0000
  106                  0.00    0.0000      0.00    0.0000
  107                  0.00    0.0000      0.00    0.0000
  11                  28.00    0.6980      1.80    0.0164
  112                 61.00    0.2246      0.07    0.0169
  113                  0.00    0.0000      0.00    0.0000
  117                 61.00    0.1650      0.04    0.0175
  118                 61.00    0.2246      0.07    0.0170
  119                 61.00    0.2246      0.07    0.0170
  12                   0.00    0.0000      0.00    0.0000
  120                 18.00    0.2822      0.27    0.0188
  122                  0.00    0.0000      0.00    0.0000
  123                  0.00    0.0000      0.00    0.0000
  126                  0.00    0.0000      0.00    0.0000
  127                  0.00    0.0000      0.00    0.0000
  128                 61.00    0.3046      0.15    0.0165
  131                 43.00    0.2680      0.14    0.0175
  132                 61.00    0.3046      0.15    0.0164
  134                  0.00    0.0000      0.00    0.0000
  136                 43.00    0.4178      0.41    0.0165
  137                  0.00    0.0000      0.00    0.0000
  138                 -0.00    0.0000      0.00    0.0000
  139                  0.00    0.0000      0.00    0.0000
  14                  33.00    0.5173      0.79    0.0166
  142                -43.00    2.6403     34.29    0.0139
  143                  0.00    0.0000      0.00    0.0000
  144                 -0.00    0.0000      0.00    0.0000
  145                  0.00    0.0000      0.00    0.0000
  148                  0.00    0.0000      0.00    0.0000
  149                  0.00    0.0000      0.00    0.0000
  15                   0.00    0.0000      0.00    0.0000
  150                  0.00    0.0000      0.00    0.0000
  151                  0.00    0.0000      0.00    0.0000
  156                  0.00    0.0000      0.00    0.0000
  16                   0.00    0.0000      0.00    0.0000
  160                  0.00    0.0000      0.00    0.0000
  162                  0.00    0.0000      0.00    0.0000
  171                  0.00    0.0000      0.00    0.0000
  172                  0.00    0.0000      0.00    0.0000
  175                  0.00    0.0000      0.00    0.0000
  181                  0.00    0.0000      0.00    0.0000
  183                  0.00    0.0000      0.00    0.0000
  184                 -0.00    0.0000      0.00    0.0000
  185                  0.00    0.0000      0.00    0.0000
  19                   0.00    0.0000      0.00    0.0000
  2                   61.00    0.1650      0.04    0.0175
  20                   0.00    0.0000      0.00    0.0000
  21                  -0.00    0.0000      0.00    0.0000
  22                  61.00    0.2246      0.07    0.0170
  23                   0.00    0.0000      0.00    0.0000
  24                  25.00    0.3919      0.48    0.0176
  25                  25.00    0.3919      0.48    0.0176
  26                  28.00    0.1398      0.04    0.0194
  27                  -0.00    0.0000      0.00    0.0000
  28                   0.00    0.0000      0.00    0.0000
  29                   0.00    0.0000      0.00    0.0000
  3                    0.00    0.0000      0.00    0.0000
  30                   0.00    0.0000      0.00    0.0000
  31                  86.00    0.1404      0.02    0.0172
  32                  61.00    0.3046      0.15    0.0164
  33                   0.00    0.0000      0.00    0.0000
  34                  86.00    0.1786      0.03    0.0167
  36                   0.00    0.0000      0.00    0.0000
  37                   0.00    0.0000      0.00    0.0000
  38                   0.00    0.0000      0.00    0.0000
  4                   28.00    0.1745      0.06    0.0189
  40                   0.00    0.0000      0.00    0.0000
  41                   0.00    0.0000      0.00    0.0000
  42                   0.00    0.0000      0.00    0.0000
  43                  25.00    0.0676      0.01    0.0213
  44                   0.00    0.0000      0.00    0.0000
  45                   0.00    0.0000      0.00    0.0000
  46                   0.00    0.0000      0.00    0.0000
  47                   0.00    0.0000      0.00    0.0000
  48                   0.00    0.0000      0.00    0.0000
  5                    0.00    0.0000      0.00    0.0000
  50                   0.00    0.0000      0.00    0.0000
  51                  86.00    0.1786      0.03    0.0168
  52                   0.00    0.0000      0.00    0.0000
  53                   0.00    0.0000      0.00    0.0000
  54                 233.40    0.2149      0.03    0.0149
  56                   0.00    0.0000      0.00    0.0000
  57                   0.00    0.0000      0.00    0.0000
  58                   0.00    0.0000      0.00    0.0000
  59                   0.00    0.0000      0.00    0.0000
  6                    0.00    0.0000      0.00    0.0000
  60                   0.00    0.0000      0.00    0.0000
  61                   0.00    0.0000      0.00    0.0000
  62                   0.00    0.0000      0.00    0.0000
  63                  86.00    0.1404      0.02    0.0172
  64                   0.00    0.0000      0.00    0.0000
  65                   0.00    0.0000      0.00    0.0000
  66                   0.00    0.0000      0.00    0.0000
  67                   0.00    0.0000      0.00    0.0000
  68                  -0.00    0.0000      0.00    0.0000
  69                   0.00    0.0000      0.00    0.0000
  7                    0.00    0.0000      0.00    0.0000
  70                   0.00    0.0000      0.00    0.0000
  71                   0.00    0.0000      0.00    0.0000
  72                   0.00    0.0000      0.00    0.0000
  73                  86.40    1.3544      4.53    0.0138
  74                 233.40    0.2149      0.03    0.0163
  76                   0.00    0.0000      0.00    0.0000
  77                   0.00    0.0000      0.00    0.0000
  78                   0.00    0.0000      0.00    0.0000
  79                   0.00    0.0000      0.00    0.0000
  8                    0.00    0.0000      0.00    0.0000
  80                   0.00    0.0000      0.00    0.0000
  81                  -0.00    0.0000      0.00    0.0000
  82                   0.00    0.0000      0.00    0.0000
  83                   0.00    0.0000      0.00    0.0000
  84                   0.00    0.0000      0.00    0.0000
  86                   0.00    0.0000      0.00    0.0000
  87                   0.00    0.0000      0.00    0.0000
  88                   0.00    0.0000      0.00    0.0000
  89                   0.00    0.0000      0.00    0.0000
  9                  233.40    0.2149      0.03    0.0150
  90                   0.00    0.0000      0.00    0.0000
  92                   0.00    0.0000      0.00    0.0000
  93                   0.00    0.0000      0.00    0.0000
  94                   0.00    0.0000      0.00    0.0000
  95                   0.00    0.0000      0.00    0.0000
  96                  43.00    1.0719      3.90    0.0151
  97                  -0.00    0.0000      0.00    0.0000
  98                   0.00    0.0000      0.00    0.0000
  99                   0.00    0.0000      0.00    0.0000
  55                  43.00    0.4178      0.41    0.0165
  101                  0.00    0.0000      0.00    0.0000
  108                 43.00    0.4178      0.41    0.0165
  109                  0.00    0.0000      0.00    0.0000
  49                  -0.00    0.0000      0.00    0.0000
  85                 -28.00    0.1745      0.06    0.0189
  91                  -0.00    0.0000      0.00    0.0000
  110                  0.00    0.0000      0.00    0.0000
  111                  0.00    0.0000      0.00    0.0000
  17                  -0.00    0.0000      0.00    0.0000
  18                   0.00    0.0000      0.00    0.0000
  39                   0.00    0.0000      0.00    0.0000
  75                   0.00    0.0000      0.00    0.0000
  114                -28.00    1.0882      5.23    0.0157
   
  Analysis ended Tue Jun  1 20:53:53 2021
