  Page 1                                    Tue Jun  1 20:53:58 2021

  ******************************************************************
  *                           E P A N E T                          *
  *                   Hydraulic and Water Quality                  *
  *                   Analysis for Pipe Networks                   *
  *                         Version 2.00.12                        *
  ******************************************************************
  
  C:\Mario\Violada 
   
      Input Data File ................... /home/borja/Escritorio/nery/epanet-telecontrol/flowpath/tmp.inp
      Number of Junctions................ 146
      Number of Reservoirs............... 1
      Number of Tanks ................... 0
      Number of Pipes ................... 146
      Number of Pumps ................... 0
      Number of Valves .................. 0
      Headloss Formula .................. Darcy-Weisbach
      Hydraulic Timestep ................ 1.00 hrs
      Hydraulic Accuracy ................ 0.001000
      Status Check Frequency ............ 2
      Maximum Trials Checked ............ 10
      Damping Limit Threshold ........... 0.000000
      Maximum Trials .................... 40
      Quality Analysis .................. None
      Specific Gravity .................. 1.00
      Relative Kinematic Viscosity ...... 1.00
      Relative Chemical Diffusivity ..... 1.00
      Demand Multiplier ................. 1.00
      Total Duration .................... 0.00 hrs
      Reporting Criteria:
         Selected Nodes
         No Links
         with Velocity above 3.00 m/s
   
  Analysis begun Tue Jun  1 20:53:58 2021

   
  Node Results:
  ----------------------------------------------
                     Demand      Head  Pressure
  Node                  L/s         m         m
  ----------------------------------------------
  213               0.000000e+00   4.459758e+02   6.307579e+01
  241               0.000000e+00   4.452705e+02   7.203049e+01
  245               0.000000e+00   4.437445e+02   9.362453e+01
  256               0.000000e+00   4.472790e+02   8.106897e+01
  276               0.000000e+00   4.467813e+02   6.469128e+01
  277               0.000000e+00   4.400366e+02   5.977655e+01
  286               0.000000e+00   4.484017e+02   6.657172e+01
  296               2.600000e+01   4.369248e+02   5.576481e+01
   
   
  Link Results:
  --------------------------------------------------------
                       Flow  Velocity  Headloss  F-Factor
  Link                  L/s       m/s    /1000m          
  --------------------------------------------------------
  1                   23.20    0.5783      1.28    0.0170
  10                  20.00    0.1943      0.10    0.0194
  100                  0.00    0.0000      0.00    0.0000
  102                 71.50    1.1208      3.21    0.0143
  103                 50.00    1.2464      5.13    0.0147
  104                 93.10    1.4594      5.19    0.0136
  105                 23.00    0.5733      1.26    0.0170
  106                  0.00    0.0000      0.00    0.0000
  107                152.50    0.9504      1.38    0.0135
  11                  20.00    0.4986      0.98    0.0175
  112                304.60    1.1217      1.37    0.0125
  113                 23.20    0.3637      0.42    0.0178
  117                327.80    0.8869      0.74    0.0127
  118                304.60    1.1217      1.37    0.0125
  119                327.80    1.2072      1.56    0.0124
  12                   0.00    0.0000      0.00    0.0000
  120                 36.00    0.5643      0.93    0.0163
  122                 18.00    0.6996      2.36    0.0171
  123                 18.00    0.2822      0.27    0.0188
  126                 18.00    0.4487      0.81    0.0179
  127                 18.00    0.4487      0.81    0.0179
  128                304.60    1.5207      2.85    0.0122
  131                268.60    1.6739      3.87    0.0123
  132                304.60    1.5207      2.85    0.0122
  134                  0.00    0.0000      0.00    0.0000
  136                116.10    1.1280      2.45    0.0137
  137                 23.00    1.4122     11.02    0.0156
  138                  0.00    0.0000      0.00    0.0000
  139                  0.00    0.0000      0.00    0.0000
  14                  33.00    0.5173      0.79    0.0166
  142                -43.00    2.6403     34.30    0.0139
  143                  0.00    0.0000      0.00    0.0000
  144                 26.00    1.0105      4.58    0.0159
  145                 36.00    0.3498      0.29    0.0171
  148                134.50    0.8382      1.10    0.0138
  149                134.50    0.8382      1.10    0.0138
  15                  86.00    1.3481      4.49    0.0138
  150                  0.00    0.0000      0.00    0.0000
  151                  0.00    0.0000      0.00    0.0000
  156                  0.00    0.0000      0.00    0.0000
  16                   0.00    0.0000      0.00    0.0000
  160                 79.30    1.2431      3.88    0.0140
  162                  0.00    0.0000      0.00    0.0000
  171                 28.00    1.0882      5.23    0.0157
  172                 60.00    0.9405      2.34    0.0148
  175                  0.00    0.0000      0.00    0.0000
  181                 71.20    1.7749      9.76    0.0137
  183                 18.00    0.6996      2.36    0.0171
  184                 18.00    0.2822      0.27    0.0188
  185                 18.00    0.2822      0.27    0.0188
  19                   0.00    0.0000      0.00    0.0000
  2                  327.80    0.8869      0.74    0.0127
  20                   0.00    0.0000      0.00    0.0000
  21                  44.00    1.7100     11.86    0.0144
  22                 239.00    0.8801      0.88    0.0131
  23                   0.00    0.0000      0.00    0.0000
  24                  44.00    0.6897      1.33    0.0157
  25                  44.00    0.6897      1.33    0.0157
  26                 206.00    1.0285      1.40    0.0131
  27                  18.00    0.6996      2.36    0.0171
  28                 146.40    1.4224      3.74    0.0131
  29                 183.70    0.4970      0.26    0.0141
  3                   97.30    1.5252      5.63    0.0135
  30                   0.00    0.0000      0.00    0.0000
  31                 506.70    0.8274      0.49    0.0123
  32                 239.00    1.1932      1.83    0.0127
  33                 223.70    0.6052      0.37    0.0136
  34                 506.70    1.0523      0.87    0.0121
  36                   0.00    0.0000      0.00    0.0000
  37                   0.00    0.0000      0.00    0.0000
  38                   0.00    0.0000      0.00    0.0000
  4                  106.00    0.6606      0.71    0.0145
  40                   0.00    0.0000      0.00    0.0000
  41                 183.70    0.4970      0.26    0.0141
  42                   0.00    0.0000      0.00    0.0000
  43                 267.70    0.7243      0.51    0.0132
  44                   0.00    0.0000      0.00    0.0000
  45                   0.00    0.0000      0.00    0.0000
  46                  40.00    0.9971      3.43    0.0153
  47                 183.70    0.6765      0.54    0.0137
  48                 162.70    0.5992      0.44    0.0140
  5                   -0.00    0.0000      0.00    0.0000
  50                   0.00    0.0000      0.00    0.0000
  51                 506.70    1.0523      0.87    0.0121
  52                  -0.00    0.0000      0.00    0.0000
  53                  44.00    0.2197      0.09    0.0176
  54                1090.20    1.0037      0.50    0.0114
  56                   0.00    0.0000      0.00    0.0000
  57                 109.50    1.7165      6.98    0.0132
  58                   0.00    0.0000      0.00    0.0000
  59                 109.50    1.7165      6.98    0.0132
  6                  100.00    0.6232      0.64    0.0146
  60                   0.00    0.0000      0.00    0.0000
  61                 169.30    1.6449      4.87    0.0128
  62                 146.40    1.4224      3.74    0.0131
  63                 676.00    1.1039      0.82    0.0117
  64                  -0.00    0.0000      0.00    0.0000
  65                   0.00    0.0000      0.00    0.0000
  66                 169.30    0.8452      0.98    0.0136
  67                 118.40    1.1504      2.54    0.0136
  68                  -0.00    0.0000      0.00    0.0000
  69                 169.30    1.0551      1.67    0.0133
  7                    0.00    0.0000      0.00    0.0000
  70                  79.30    1.2431      3.88    0.0140
  71                   0.00    0.0000      0.00    0.0000
  72                  -0.00    0.0000      0.00    0.0000
  73                  86.40    1.3544      4.53    0.0138
  74                1090.20    1.0037      0.50    0.0114
  76                   0.00    0.0000      0.00    0.0000
  77                  18.00    0.1122      0.03    0.0210
  78                  70.00    1.0973      3.09    0.0144
  79                  21.00    1.2894      9.35    0.0159
  8                    0.00    0.0000      0.00    0.0000
  80                 183.70    0.4970      0.26    0.0141
  81                   0.00    0.0000      0.00    0.0000
  82                   0.00    0.0000      0.00    0.0000
  83                  -0.00    0.0000      0.00    0.0000
  84                   0.00    0.0000      0.00    0.0000
  86                  21.10    1.2956      9.43    0.0159
  87                   0.00    0.0000      0.00    0.0000
  88                  -0.00    0.0000      0.00    0.0000
  89                   0.00    0.0000      0.00    0.0000
  9                 1199.70    1.1045      0.59    0.0112
  90                  97.30    1.5252      5.63    0.0135
  92                  26.00    0.1620      0.06    0.0195
  93                  26.00    1.5965     13.75    0.0153
  94                  -0.00    0.0000      0.00    0.0000
  95                   0.00    0.0000      0.00    0.0000
  96                  73.80    1.8397     10.41    0.0136
  97                   0.00    0.0000      0.00    0.0000
  98                   0.00    0.0000      0.00    0.0000
  99                  23.20    1.4245     11.19    0.0156
  55                 116.10    1.1280      2.45    0.0137
  101                  0.00    0.0000      0.00    0.0000
  108                116.10    1.1280      2.45    0.0137
  109                  0.00    0.0000      0.00    0.0000
  49                  -0.00    0.0000      0.00    0.0000
  85                -106.00    0.6606      0.71    0.0145
  91                  -0.00    0.0000      0.00    0.0000
  110                  0.00    0.0000      0.00    0.0000
  111                  0.00    0.0000      0.00    0.0000
  17                   0.00    0.0000      0.00    0.0000
  18                   0.00    0.0000      0.00    0.0000
  39                  28.00    1.7193     15.73    0.0150
  75                   0.00    0.0000      0.00    0.0000
  114                 -0.00    0.0000      0.00    0.0000
   
  Analysis ended Tue Jun  1 20:53:58 2021
