  Page 1                                    Tue Jun  1 20:54:00 2021

  ******************************************************************
  *                           E P A N E T                          *
  *                   Hydraulic and Water Quality                  *
  *                   Analysis for Pipe Networks                   *
  *                         Version 2.00.12                        *
  ******************************************************************
  
  C:\Mario\Violada 
   
      Input Data File ................... /home/borja/Escritorio/nery/epanet-telecontrol/flowpath/tmp.inp
      Number of Junctions................ 146
      Number of Reservoirs............... 1
      Number of Tanks ................... 0
      Number of Pipes ................... 146
      Number of Pumps ................... 0
      Number of Valves .................. 0
      Headloss Formula .................. Darcy-Weisbach
      Hydraulic Timestep ................ 1.00 hrs
      Hydraulic Accuracy ................ 0.001000
      Status Check Frequency ............ 2
      Maximum Trials Checked ............ 10
      Damping Limit Threshold ........... 0.000000
      Maximum Trials .................... 40
      Quality Analysis .................. None
      Specific Gravity .................. 1.00
      Relative Kinematic Viscosity ...... 1.00
      Relative Chemical Diffusivity ..... 1.00
      Demand Multiplier ................. 1.00
      Total Duration .................... 0.00 hrs
      Reporting Criteria:
         Selected Nodes
         No Links
         with Velocity above 3.00 m/s
   
  Analysis begun Tue Jun  1 20:54:00 2021

   
  Node Results:
  ----------------------------------------------
                     Demand      Head  Pressure
  Node                  L/s         m         m
  ----------------------------------------------
  213               0.000000e+00   4.441235e+02   6.122348e+01
  241               0.000000e+00   4.453477e+02   7.210767e+01
  245               0.000000e+00   4.438217e+02   9.370173e+01
  256               0.000000e+00   4.475005e+02   8.129053e+01
  276               2.000000e+01   4.453030e+02   6.321305e+01
  277               0.000000e+00   4.398869e+02   5.962690e+01
  286               0.000000e+00   4.405714e+02   5.874143e+01
  296               2.600000e+01   4.372656e+02   5.610555e+01
   
   
  Link Results:
  --------------------------------------------------------
                       Flow  Velocity  Headloss  F-Factor
  Link                  L/s       m/s    /1000m          
  --------------------------------------------------------
  1                   40.70    1.0146      3.54    0.0152
  10                  20.00    0.1943      0.10    0.0194
  100                  0.00    0.0000      0.00    0.0000
  102                 50.00    0.7838      1.68    0.0153
  103                 50.00    1.2464      5.13    0.0147
  104                 93.10    1.4594      5.19    0.0136
  105                 23.00    0.5733      1.26    0.0170
  106                 60.10    1.4982      7.17    0.0142
  107                 86.00    0.5360      0.49    0.0150
  11                  20.00    0.4986      0.98    0.0175
  112                322.10    1.1862      1.51    0.0124
  113                 70.70    1.1083      3.15    0.0143
  117                492.00    1.3311      1.56    0.0119
  118                322.10    1.1862      1.51    0.0124
  119                392.80    1.4465      2.18    0.0120
  12                  -0.00    0.0000      0.00    0.0000
  120                 54.00    0.8465      1.93    0.0151
  122                 18.00    0.6996      2.36    0.0171
  123                  0.00    0.0000      0.00    0.0000
  126                 54.00    1.3461      5.90    0.0144
  127                 54.00    1.3461      5.90    0.0144
  128                322.10    1.6081      3.16    0.0121
  131                250.10    1.5586      3.40    0.0124
  132                304.10    1.5182      2.84    0.0122
  134                  0.00    0.0000      0.00    0.0000
  136                116.10    1.1280      2.45    0.0137
  137                 23.00    1.4122     11.02    0.0156
  138                 28.00    0.6980      1.80    0.0164
  139                  0.00    0.0000      0.00    0.0000
  14                  33.00    0.5173      0.79    0.0166
  142                -43.00    2.6403     34.29    0.0139
  143                  0.00    0.0000      0.00    0.0000
  144                 26.00    1.0105      4.58    0.0159
  145                 18.00    0.1749      0.09    0.0198
  148                 68.00    0.4238      0.32    0.0157
  149                 68.00    0.4238      0.32    0.0158
  15                  86.00    1.3481      4.49    0.0138
  150                  0.00    0.0000      0.00    0.0000
  151                  0.00    0.0000      0.00    0.0000
  156                 18.00    1.1052      7.08    0.0164
  16                   0.00    0.0000      0.00    0.0000
  160                 79.30    1.2431      3.88    0.0140
  162                  0.00    0.0000      0.00    0.0000
  171                 28.00    1.0882      5.23    0.0157
  172                 60.00    0.9405      2.34    0.0148
  175                  0.00    0.0000      0.00    0.0000
  181                 71.20    1.7749      9.76    0.0137
  183                 18.00    0.6996      2.36    0.0171
  184                 18.00    0.2822      0.26    0.0186
  185                 18.00    0.2822      0.27    0.0188
  19                   0.00    0.0000      0.00    0.0000
  2                  492.00    1.3311      1.56    0.0119
  20                  -0.00    0.0000      0.00    0.0000
  21                  44.00    1.7100     11.86    0.0144
  22                 239.00    0.8801      0.88    0.0131
  23                   0.00    0.0000      0.00    0.0000
  24                  44.00    0.6897      1.33    0.0157
  25                  44.00    0.6897      1.33    0.0157
  26                 206.00    1.0285      1.40    0.0131
  27                  18.00    0.6996      2.36    0.0171
  28                 146.40    1.4224      3.74    0.0131
  29                 109.80    0.2971      0.10    0.0156
  3                   97.30    1.5252      5.63    0.0135
  30                   0.00    0.0000      0.00    0.0000
  31                 464.47    0.7585      0.41    0.0125
  32                 239.00    1.1932      1.83    0.0127
  33                 149.80    0.4053      0.18    0.0146
  34                 432.80    0.8988      0.65    0.0124
  36                  99.20    1.5550      5.83    0.0135
  37                   0.00    0.0000      0.00    0.0000
  38                  20.00    0.1246      0.04    0.0204
  4                  106.00    0.6606      0.71    0.0145
  40                  20.00    0.7773      2.85    0.0168
  41                 109.80    0.2971      0.10    0.0156
  42                   0.00    0.0000      0.00    0.0000
  43                 193.80    0.5243      0.29    0.0140
  44                  41.80    1.0420      3.71    0.0152
  45                  41.80    1.6245     10.81    0.0146
  46                  40.00    0.9971      3.43    0.0153
  47                  38.00    0.1399      0.03    0.0187
  48                  38.00    0.1399      0.03    0.0189
  5                    0.00    0.0000      0.00    0.0000
  50                  31.67    1.2308      6.54    0.0153
  51                 432.80    0.8988      0.65    0.0124
  52                  -0.00    0.0000      0.00    0.0000
  53                  38.00    0.1897      0.07    0.0181
  54                1257.29    1.1575      0.64    0.0111
  56                   0.00    0.0000      0.00    0.0000
  57                 109.50    1.7165      6.98    0.0132
  58                   0.00    0.0000      0.00    0.0000
  59                 109.50    1.7165      6.98    0.0132
  6                  100.00    0.6232      0.64    0.0146
  60                   0.00    0.0000      0.00    0.0000
  61                 169.30    1.6449      4.87    0.0128
  62                 146.40    1.4224      3.74    0.0131
  63                 678.89    1.1086      0.83    0.0117
  64                   0.00    0.0000      0.00    0.0000
  65                   0.00    0.0000      0.00    0.0000
  66                 214.42    1.0705      1.50    0.0130
  67                 118.40    1.1504      2.54    0.0136
  68                   0.00    0.0000      0.00    0.0000
  69                 191.30    1.1922      2.08    0.0130
  7                   -0.00    0.0000      0.00    0.0000
  70                  79.30    1.2431      3.88    0.0140
  71                  26.80    1.6456     14.53    0.0152
  72                  -0.00    0.0000      0.00    0.0000
  73                  86.40    1.3544      4.53    0.0138
  74                1257.29    1.1575      0.64    0.0111
  76                  30.00    0.2915      0.21    0.0178
  77                  18.00    0.1122      0.03    0.0210
  78                   0.00    0.0000      0.00    0.0000
  79                   0.00    0.0000      0.00    0.0000
  8                    0.00    0.0000      0.00    0.0000
  80                  68.00    0.1840      0.04    0.0171
  81                   0.00    0.0000      0.00    0.0000
  82                  20.00    0.1246      0.04    0.0202
  83                  20.00    1.2280      8.56    0.0160
  84                  99.20    1.5550      5.83    0.0135
  86                  21.10    1.2956      9.43    0.0159
  87                  22.00    1.3508     10.16    0.0157
  88                   0.00    0.0000      0.00    0.0000
  89                   0.00    0.0000      0.00    0.0000
  9                 1366.79    1.2583      0.75    0.0109
  90                  97.30    1.5252      5.63    0.0135
  92                   0.00    0.0000      0.00    0.0000
  93                  26.00    1.5965     13.75    0.0153
  94                   0.00    0.0000      0.00    0.0000
  95                  36.00    1.3991      8.24    0.0150
  96                  73.80    1.8397     10.41    0.0137
  97                  -0.00    0.0000      0.00    0.0000
  98                   0.00    0.0000      0.00    0.0000
  99                  23.20    1.4245     11.19    0.0156
  55                 164.10    1.5944      4.60    0.0129
  101                 20.00    1.2280      8.56    0.0160
  108                144.10    1.4001      3.63    0.0132
  109                  0.00    0.0000      0.00    0.0000
  49                 -30.00    0.2915      0.21    0.0178
  85                -106.00    0.6606      0.71    0.0145
  91                   0.00    0.0000      0.00    0.0000
  110                  0.00    0.0000      0.00    0.0000
  111                  0.00    0.0000      0.00    0.0000
  17                   0.00    0.0000      0.00    0.0000
  18                  18.00    1.1052      7.08    0.0164
  39                  28.00    1.7193     15.73    0.0150
  75                   0.00    0.0000      0.00    0.0000
  114                  0.00    0.0000      0.00    0.0000
   
  Analysis ended Tue Jun  1 20:54:00 2021
