  Page 1                                    Tue Jun  1 20:54:01 2021

  ******************************************************************
  *                           E P A N E T                          *
  *                   Hydraulic and Water Quality                  *
  *                   Analysis for Pipe Networks                   *
  *                         Version 2.00.12                        *
  ******************************************************************
  
  C:\Mario\Violada 
   
      Input Data File ................... /home/borja/Escritorio/nery/epanet-telecontrol/flowpath/tmp.inp
      Number of Junctions................ 146
      Number of Reservoirs............... 1
      Number of Tanks ................... 0
      Number of Pipes ................... 146
      Number of Pumps ................... 0
      Number of Valves .................. 0
      Headloss Formula .................. Darcy-Weisbach
      Hydraulic Timestep ................ 1.00 hrs
      Hydraulic Accuracy ................ 0.001000
      Status Check Frequency ............ 2
      Maximum Trials Checked ............ 10
      Damping Limit Threshold ........... 0.000000
      Maximum Trials .................... 40
      Quality Analysis .................. None
      Specific Gravity .................. 1.00
      Relative Kinematic Viscosity ...... 1.00
      Relative Chemical Diffusivity ..... 1.00
      Demand Multiplier ................. 1.00
      Total Duration .................... 0.00 hrs
      Reporting Criteria:
         Selected Nodes
         No Links
         with Velocity above 3.00 m/s
   
  Analysis begun Tue Jun  1 20:54:01 2021

   
  Node Results:
  ----------------------------------------------
                     Demand      Head  Pressure
  Node                  L/s         m         m
  ----------------------------------------------
  213               0.000000e+00   4.454738e+02   6.257383e+01
  241               0.000000e+00   4.346325e+02   6.139252e+01
  245               0.000000e+00   4.376981e+02   8.757812e+01
  256               0.000000e+00   4.465763e+02   8.036631e+01
  276               0.000000e+00   4.463760e+02   6.428603e+01
  277               2.600000e+01   4.339810e+02   5.372103e+01
  286               0.000000e+00   4.476505e+02   6.582048e+01
  296               2.600000e+01   4.371346e+02   5.597458e+01
   
   
  Link Results:
  --------------------------------------------------------
                       Flow  Velocity  Headloss  F-Factor
  Link                  L/s       m/s    /1000m          
  --------------------------------------------------------
  1                   71.90    1.7923      9.93    0.0137
  10                 145.00    1.4088      3.67    0.0131
  100                  0.00    0.0000      0.00    0.0000
  102                 71.50    1.1208      3.21    0.0143
  103                 50.00    1.2464      5.13    0.0147
  104                 30.80    0.4828      0.70    0.0168
  105                  0.00    0.0000      0.00    0.0000
  106                  0.00    0.0000      0.00    0.0000
  107                147.10    0.9167      1.29    0.0136
  11                 106.00    2.6424     20.17    0.0128
  112                259.90    0.9571      1.02    0.0129
  113                 71.90    1.1271      3.25    0.0143
  117                370.90    1.0035      0.93    0.0124
  118                259.90    0.9571      1.02    0.0129
  119                331.80    1.2219      1.60    0.0124
  12                  86.00    2.1438     13.76    0.0133
  120                 54.00    0.8465      1.93    0.0151
  122                 18.00    0.6996      2.36    0.0171
  123                 21.60    0.3386      0.37    0.0181
  126                 36.00    0.8974      2.83    0.0156
  127                 36.00    0.8974      2.83    0.0156
  128                259.90    1.2976      2.13    0.0126
  131                205.90    1.2832      2.38    0.0128
  132                259.90    1.2976      2.13    0.0126
  134                  0.00    0.0000      0.00    0.0000
  136                 30.80    0.2993      0.22    0.0177
  137                  0.00    0.0000      0.00    0.0000
  138                 28.00    0.6980      1.80    0.0164
  139                  0.00    0.0000      0.00    0.0000
  14                  18.00    0.2822      0.27    0.0188
  142                 -0.00    0.0000      0.00    0.0000
  143                  0.00    0.0000      0.00    0.0000
  144                 26.00    1.0105      4.58    0.0159
  145                 57.60    0.5596      0.69    0.0156
  148                129.10    0.8046      1.02    0.0140
  149                147.10    0.9167      1.29    0.0136
  15                  86.00    1.3481      4.49    0.0138
  150                 21.60    0.3386      0.37    0.0181
  151                 21.60    1.3263      9.83    0.0158
  156                  0.00    0.0000      0.00    0.0000
  16                  18.00    0.4487      0.81    0.0179
  160                105.30    1.6506      6.50    0.0133
  162                  0.00    0.0000      0.00    0.0000
  171                 54.00    2.0987     17.22    0.0139
  172                 86.00    1.3481      4.49    0.0138
  175                  0.00    0.0000      0.00    0.0000
  181                 71.20    1.7749      9.75    0.0137
  183                 18.00    0.6996      2.36    0.0171
  184                 18.00    0.2822      0.27    0.0188
  185                 36.00    0.5643      0.93    0.0163
  19                   0.00    0.0000      0.00    0.0000
  2                  370.90    1.0035      0.93    0.0124
  20                  60.00    1.4957      7.15    0.0142
  21                  26.00    1.0105      4.58    0.0159
  22                 502.20    1.8494      3.42    0.0115
  23                  18.00    0.6996      2.36    0.0171
  24                  26.00    0.4076      0.52    0.0174
  25                  26.00    0.4076      0.52    0.0174
  26                 424.20    2.1179      5.24    0.0116
  27                  -0.00    0.0000      0.00    0.0000
  28                 144.40    1.4030      3.64    0.0131
  29                 134.50    0.3639      0.15    0.0150
  3                  123.30    1.9328      8.66    0.0130
  30                   0.00    0.0000      0.00    0.0000
  31                 680.70    1.1116      0.84    0.0117
  32                 442.20    2.2077      5.65    0.0115
  33                 134.50    0.3639      0.15    0.0150
  34                 662.70    1.3763      1.42    0.0115
  36                  39.10    0.6129      1.08    0.0160
  37                  93.20    2.3233     15.94    0.0131
  38                   0.00    0.0000      0.00    0.0000
  4                  231.00    1.4396      2.94    0.0126
  40                   0.00    0.0000      0.00    0.0000
  41                 134.50    0.3639      0.15    0.0150
  42                   0.00    0.0000      0.00    0.0000
  43                 160.50    0.4342      0.20    0.0145
  44                  41.80    1.0420      3.71    0.0152
  45                  41.80    1.6245     10.81    0.0146
  46                   0.00    0.0000      0.00    0.0000
  47                  92.70    0.3414      0.16    0.0156
  48                  92.70    0.3414      0.16    0.0156
  5                    0.00    0.0000      0.00    0.0000
  50                  18.00    0.6996      2.36    0.0171
  51                 662.70    1.3763      1.42    0.0115
  52                  18.00    1.1052      7.07    0.0164
  53                  44.00    0.2197      0.09    0.0176
  54                1323.30    1.2183      0.71    0.0110
  56                   0.00    0.0000      0.00    0.0000
  57                 109.50    1.7165      6.98    0.0132
  58                   0.00    0.0000      0.00    0.0000
  59                 109.50    1.7165      6.98    0.0132
  6                  193.20    1.2040      2.12    0.0130
  60                   0.00    0.0000      0.00    0.0000
  61                 167.30    1.6255      4.77    0.0128
  62                 144.40    1.4030      3.64    0.0131
  63                 866.00    1.4142      1.30    0.0113
  64                   0.00    0.0000      0.00    0.0000
  65                   0.00    0.0000      0.00    0.0000
  66                 185.30    0.9251      1.15    0.0133
  67                 144.40    1.4030      3.64    0.0131
  68                  26.00    1.5965     13.75    0.0153
  69                 185.30    1.1548      1.97    0.0131
  7                   60.00    0.9405      2.34    0.0148
  70                 105.30    1.6506      6.50    0.0133
  71                   0.00    0.0000      0.00    0.0000
  72                   0.00    0.0000      0.00    0.0000
  73                  86.40    1.3544      4.53    0.0138
  74                1323.30    1.2183      0.71    0.0110
  76                   0.00    0.0000      0.00    0.0000
  77                  18.00    0.1122      0.03    0.0210
  78                   0.00    0.0000      0.00    0.0000
  79                   0.00    0.0000      0.00    0.0000
  8                    0.00    0.0000      0.00    0.0000
  80                  92.70    0.2508      0.08    0.0161
  81                  18.00    0.4487      0.81    0.0179
  82                   0.00    0.0000      0.00    0.0000
  83                  -0.00    0.0000      0.00    0.0000
  84                  39.10    0.6129      1.08    0.0161
  86                  21.10    1.2956      9.43    0.0159
  87                   0.00    0.0000      0.00    0.0000
  88                  -0.00    0.0000      0.00    0.0000
  89                   0.00    0.0000      0.00    0.0000
  9                 1432.80    1.3191      0.82    0.0109
  90                 123.30    1.9328      8.67    0.0130
  92                  26.00    0.1620      0.06    0.0195
  93                  26.00    1.5965     13.75    0.0153
  94                  -0.00    0.0000      0.00    0.0000
  95                  18.00    0.6996      2.36    0.0171
  96                  30.80    0.7678      2.14    0.0161
  97                   0.00    0.0000      0.00    0.0000
  98                  31.20    1.9157     19.14    0.0147
  99                  23.20    1.4245     11.19    0.0156
  55                  58.80    0.5713      0.71    0.0155
  101                 -0.00    0.0000      0.00    0.0000
  108                 58.80    0.5713      0.71    0.0155
  109                  0.00    0.0000      0.00    0.0000
  49                  -0.00    0.0000      0.00    0.0000
  85                -231.00    1.4396      2.94    0.0126
  91                 -39.00    0.6113      1.07    0.0161
  110                  0.00    0.0000      0.00    0.0000
  111                  0.00    0.0000      0.00    0.0000
  17                   0.00    0.0000      0.00    0.0000
  18                  18.00    1.1052      7.08    0.0164
  39                  28.00    1.7193     15.73    0.0150
  75                   0.00    0.0000      0.00    0.0000
  114                 -0.00    0.0000      0.00    0.0000
   
  Analysis ended Tue Jun  1 20:54:01 2021
