  Page 1                                    Tue Jun  1 20:54:11 2021

  ******************************************************************
  *                           E P A N E T                          *
  *                   Hydraulic and Water Quality                  *
  *                   Analysis for Pipe Networks                   *
  *                         Version 2.00.12                        *
  ******************************************************************
  
  C:\Mario\Violada 
   
      Input Data File ................... /home/borja/Escritorio/nery/epanet-telecontrol/flowpath/tmp.inp
      Number of Junctions................ 146
      Number of Reservoirs............... 1
      Number of Tanks ................... 0
      Number of Pipes ................... 146
      Number of Pumps ................... 0
      Number of Valves .................. 0
      Headloss Formula .................. Darcy-Weisbach
      Hydraulic Timestep ................ 1.00 hrs
      Hydraulic Accuracy ................ 0.001000
      Status Check Frequency ............ 2
      Maximum Trials Checked ............ 10
      Damping Limit Threshold ........... 0.000000
      Maximum Trials .................... 40
      Quality Analysis .................. None
      Specific Gravity .................. 1.00
      Relative Kinematic Viscosity ...... 1.00
      Relative Chemical Diffusivity ..... 1.00
      Demand Multiplier ................. 1.00
      Total Duration .................... 0.00 hrs
      Reporting Criteria:
         Selected Nodes
         No Links
         with Velocity above 3.00 m/s
   
  Analysis begun Tue Jun  1 20:54:11 2021

   
  Node Results:
  ----------------------------------------------
                     Demand      Head  Pressure
  Node                  L/s         m         m
  ----------------------------------------------
  213               0.000000e+00   4.486787e+02   6.577869e+01
  241               0.000000e+00   4.471238e+02   7.388378e+01
  245               0.000000e+00   4.476273e+02   9.750730e+01
  256               0.000000e+00   4.485596e+02   8.234956e+01
  276               0.000000e+00   4.485159e+02   6.642588e+01
  277               0.000000e+00   4.483657e+02   6.810571e+01
  286               0.000000e+00   4.422985e+02   6.046847e+01
  296               0.000000e+00   4.485817e+02   6.742174e+01
   
   
  Link Results:
  --------------------------------------------------------
                       Flow  Velocity  Headloss  F-Factor
  Link                  L/s       m/s    /1000m          
  --------------------------------------------------------
  1                   17.50    0.4362      0.77    0.0180
  10                  59.00    0.5732      0.72    0.0155
  100                  0.00    0.0000      0.00    0.0000
  102                  0.00    0.0000      0.00    0.0000
  103                  0.00    0.0000      0.00    0.0000
  104                  0.00    0.0000      0.00    0.0000
  105                  0.00    0.0000      0.00    0.0000
  106                 60.10    1.4982      7.17    0.0142
  107                 54.00    0.3365      0.21    0.0165
  11                  20.00    0.4986      0.98    0.0175
  112                 77.00    0.2836      0.11    0.0162
  113                 17.50    0.2743      0.25    0.0189
  117                177.60    0.4805      0.24    0.0142
  118                 77.00    0.2836      0.11    0.0162
  119                 94.50    0.3480      0.16    0.0156
  12                  -0.00    0.0000      0.00    0.0000
  120                  0.00    0.0000      0.00    0.0000
  122                  0.00    0.0000      0.00    0.0000
  123                 18.00    0.2822      0.27    0.0188
  126                  0.00    0.0000      0.00    0.0000
  127                  0.00    0.0000      0.00    0.0000
  128                 77.00    0.3844      0.23    0.0157
  131                 77.00    0.4799      0.39    0.0152
  132                 77.00    0.3844      0.23    0.0157
  134                 23.00    1.4122     11.01    0.0156
  136                  0.00    0.0000      0.00    0.0000
  137                  0.00    0.0000      0.00    0.0000
  138                 23.00    0.5733      1.26    0.0170
  139                  0.00    0.0000      0.00    0.0000
  14                   0.00    0.0000      0.00    0.0000
  142                 -0.00    0.0000      0.00    0.0000
  143                  0.00    0.0000      0.00    0.0000
  144                 -0.00    0.0000      0.00    0.0000
  145                 36.00    0.3498      0.29    0.0171
  148                 36.00    0.2244      0.10    0.0179
  149                 54.00    0.3365      0.21    0.0165
  15                   0.00    0.0000      0.00    0.0000
  150                  0.00    0.0000      0.00    0.0000
  151                  0.00    0.0000      0.00    0.0000
  156                  0.00    0.0000      0.00    0.0000
  16                   0.00    0.0000      0.00    0.0000
  160                  0.00    0.0000      0.00    0.0000
  162                 -0.00    0.0000      0.00    0.0000
  171                  0.00    0.0000      0.00    0.0000
  172                  0.00    0.0000      0.00    0.0000
  175                  0.00    0.0000      0.00    0.0000
  181                 -0.00    0.0000      0.00    0.0000
  183                  0.00    0.0000      0.00    0.0000
  184                 18.00    0.2822      0.27    0.0188
  185                 18.00    0.2822      0.27    0.0188
  19                   0.00    0.0000      0.00    0.0000
  2                  177.60    0.4805      0.24    0.0142
  20                  -0.00    0.0000      0.00    0.0000
  21                  18.00    0.6996      2.36    0.0171
  22                 177.60    0.6540      0.51    0.0138
  23                   0.00    0.0000      0.00    0.0000
  24                  18.00    0.2822      0.27    0.0188
  25                  18.00    0.2822      0.27    0.0188
  26                 159.00    0.7938      0.87    0.0137
  27                  18.00    0.6996      2.36    0.0171
  28                  46.40    0.4508      0.46    0.0163
  29                  48.70    0.1318      0.02    0.0184
  3                   18.00    0.2822      0.27    0.0188
  30                   0.00    0.0000      0.00    0.0000
  31                 264.30    0.4316      0.15    0.0138
  32                 159.00    0.7938      0.87    0.0137
  33                  68.70    0.1859      0.04    0.0171
  34                 264.30    0.5489      0.27    0.0135
  36                  83.10    1.3026      4.22    0.0139
  37                   0.00    0.0000      0.00    0.0000
  38                   0.00    0.0000      0.00    0.0000
  4                   59.00    0.3677      0.25    0.0162
  40                   0.00    0.0000      0.00    0.0000
  41                  48.70    0.1318      0.02    0.0183
  42                  20.00    1.2280      8.56    0.0160
  43                  86.70    0.2346      0.07    0.0163
  44                   0.00    0.0000      0.00    0.0000
  45                   0.00    0.0000      0.00    0.0000
  46                  20.00    0.4986      0.98    0.0175
  47                  48.70    0.1793      0.05    0.0178
  48                  48.70    0.1793      0.05    0.0177
  5                    0.00    0.0000      0.00    0.0000
  50                   0.00    0.0000      0.00    0.0000
  51                 264.30    0.5489      0.27    0.0135
  52                  -0.00    0.0000      0.00    0.0000
  53                   0.00    0.0000      0.00    0.0000
  54                 511.20    0.4706      0.12    0.0129
  56                   0.00    0.0000      0.00    0.0000
  57                  38.30    0.6004      1.04    0.0161
  58                   0.00    0.0000      0.00    0.0000
  59                  38.30    0.6004      1.04    0.0161
  6                  100.00    0.6232      0.64    0.0146
  60                   0.00    0.0000      0.00    0.0000
  61                  69.30    0.6733      0.96    0.0150
  62                  18.00    0.1749      0.09    0.0198
  63                 333.60    0.5448      0.23    0.0133
  64                  28.40    1.7438     16.14    0.0150
  65                   0.00    0.0000      0.00    0.0000
  66                  69.30    0.3460      0.19    0.0160
  67                  18.00    0.1749      0.09    0.0198
  68                   0.00    0.0000      0.00    0.0000
  69                  69.30    0.4319      0.33    0.0157
  7                   18.60    0.2916      0.28    0.0187
  70                   0.00    0.0000      0.00    0.0000
  71                  26.80    1.6456     14.53    0.0152
  72                  -0.00    0.0000      0.00    0.0000
  73                  -0.00    0.0000      0.00    0.0000
  74                 511.20    0.4706      0.12    0.0126
  76                   0.00    0.0000      0.00    0.0000
  77                   0.00    0.0000      0.00    0.0000
  78                   0.00    0.0000      0.00    0.0000
  79                   0.00    0.0000      0.00    0.0000
  8                    0.00    0.0000      0.00    0.0000
  80                  48.70    0.1318      0.02    0.0183
  81                   0.00    0.0000      0.00    0.0000
  82                   0.00    0.0000      0.00    0.0000
  83                   0.00    0.0000      0.00    0.0000
  84                  83.10    1.3026      4.22    0.0139
  86                   0.00    0.0000      0.00    0.0000
  87                   0.00    0.0000      0.00    0.0000
  88                   0.00    0.0000      0.00    0.0000
  89                   0.00    0.0000      0.00    0.0000
  9                  549.50    0.5059      0.14    0.0127
  90                  18.00    0.2822      0.27    0.0188
  92                   0.00    0.0000      0.00    0.0000
  93                  -0.00    0.0000      0.00    0.0000
  94                   0.00    0.0000      0.00    0.0000
  95                   0.00    0.0000      0.00    0.0000
  96                   0.00    0.0000      0.00    0.0000
  97                  23.00    1.4122     11.01    0.0156
  98                   0.00    0.0000      0.00    0.0000
  99                   0.00    0.0000      0.00    0.0000
  55                  23.00    0.2235      0.13    0.0188
  101                  0.00    0.0000      0.00    0.0000
  108                 23.00    0.2235      0.13    0.0188
  109                  0.00    0.0000      0.00    0.0000
  49                  -0.00    0.0000      0.00    0.0000
  85                 -59.00    0.3677      0.25    0.0162
  91                 -39.00    0.6113      1.07    0.0161
  110                  0.00    0.0000      0.00    0.0000
  111                  0.00    0.0000      0.00    0.0000
  17                   0.00    0.0000      0.00    0.0000
  18                   0.00    0.0000      0.00    0.0000
  39                   0.00    0.0000      0.00    0.0000
  75                   0.00    0.0000      0.00    0.0000
  114                  0.00    0.0000      0.00    0.0000
   
  Analysis ended Tue Jun  1 20:54:11 2021
