  Page 1                                    Tue Jun  1 20:54:11 2021

  ******************************************************************
  *                           E P A N E T                          *
  *                   Hydraulic and Water Quality                  *
  *                   Analysis for Pipe Networks                   *
  *                         Version 2.00.12                        *
  ******************************************************************
  
  C:\Mario\Violada 
   
      Input Data File ................... /home/borja/Escritorio/nery/epanet-telecontrol/flowpath/tmp.inp
      Number of Junctions................ 146
      Number of Reservoirs............... 1
      Number of Tanks ................... 0
      Number of Pipes ................... 146
      Number of Pumps ................... 0
      Number of Valves .................. 0
      Headloss Formula .................. Darcy-Weisbach
      Hydraulic Timestep ................ 1.00 hrs
      Hydraulic Accuracy ................ 0.001000
      Status Check Frequency ............ 2
      Maximum Trials Checked ............ 10
      Damping Limit Threshold ........... 0.000000
      Maximum Trials .................... 40
      Quality Analysis .................. None
      Specific Gravity .................. 1.00
      Relative Kinematic Viscosity ...... 1.00
      Relative Chemical Diffusivity ..... 1.00
      Demand Multiplier ................. 1.00
      Total Duration .................... 0.00 hrs
      Reporting Criteria:
         Selected Nodes
         No Links
         with Velocity above 3.00 m/s
   
  Analysis begun Tue Jun  1 20:54:11 2021

   
  Node Results:
  ----------------------------------------------
                     Demand      Head  Pressure
  Node                  L/s         m         m
  ----------------------------------------------
  213               0.000000e+00   4.489021e+02   6.600213e+01
  241               0.000000e+00   4.488342e+02   7.559422e+01
  245               0.000000e+00   4.488342e+02   9.871423e+01
  256               0.000000e+00   4.487314e+02   8.252142e+01
  276               0.000000e+00   4.485142e+02   6.642420e+01
  277               2.600000e+01   4.466567e+02   6.639672e+01
  286               0.000000e+00   4.475909e+02   6.576087e+01
  296               0.000000e+00   4.477468e+02   6.658677e+01
   
   
  Link Results:
  --------------------------------------------------------
                       Flow  Velocity  Headloss  F-Factor
  Link                  L/s       m/s    /1000m          
  --------------------------------------------------------
  1                   17.50    0.4362      0.77    0.0180
  10                   0.00    0.0000      0.00    0.0000
  100                  0.00    0.0000      0.00    0.0000
  102                 18.00    0.2822      0.27    0.0188
  103                 18.00    0.4487      0.81    0.0179
  104                  0.00    0.0000      0.00    0.0000
  105                  0.00    0.0000      0.00    0.0000
  106                 26.80    0.6681      1.66    0.0165
  107                 36.00    0.2244      0.10    0.0179
  11                   0.00    0.0000      0.00    0.0000
  112                 36.00    0.1326      0.03    0.0189
  113                 17.50    0.2743      0.25    0.0189
  117                 98.30    0.2660      0.08    0.0159
  118                 36.00    0.1326      0.03    0.0190
  119                 53.50    0.1970      0.06    0.0172
  12                   0.00    0.0000      0.00    0.0000
  120                  0.00    0.0000      0.00    0.0000
  122                  0.00    0.0000      0.00    0.0000
  123                  0.00    0.0000      0.00    0.0000
  126                  0.00    0.0000      0.00    0.0000
  127                  0.00    0.0000      0.00    0.0000
  128                 36.00    0.1797      0.06    0.0183
  131                 36.00    0.2244      0.10    0.0171
  132                 36.00    0.1797      0.06    0.0184
  134                  0.00    0.0000      0.00    0.0000
  136                  0.00    0.0000      0.00    0.0000
  137                 -0.00    0.0000      0.00    0.0000
  138                 -0.00    0.0000      0.00    0.0000
  139                  0.00    0.0000      0.00    0.0000
  14                   0.00    0.0000      0.00    0.0000
  142                  0.00    0.0000      0.00    0.0000
  143                  0.00    0.0000      0.00    0.0000
  144                 18.00    0.6996      2.36    0.0171
  145                  0.00    0.0000      0.00    0.0000
  148                 18.00    0.1122      0.03    0.0207
  149                 36.00    0.2244      0.10    0.0179
  15                   0.00    0.0000      0.00    0.0000
  150                  0.00    0.0000      0.00    0.0000
  151                  0.00    0.0000      0.00    0.0000
  156                  0.00    0.0000      0.00    0.0000
  16                   0.00    0.0000      0.00    0.0000
  160                 26.00    0.4076      0.52    0.0174
  162                  0.00    0.0000      0.00    0.0000
  171                 26.00    1.0105      4.58    0.0159
  172                 26.00    0.4076      0.52    0.0175
  175                  0.00    0.0000      0.00    0.0000
  181                  0.00    0.0000      0.00    0.0000
  183                  0.00    0.0000      0.00    0.0000
  184                  0.00    0.0000      0.00    0.0000
  185                  0.00    0.0000      0.00    0.0000
  19                   0.00    0.0000      0.00    0.0000
  2                   98.30    0.2660      0.08    0.0159
  20                   0.00    0.0000      0.00    0.0000
  21                   0.00    0.0000      0.00    0.0000
  22                  18.60    0.0685      0.01    0.0218
  23                   0.00    0.0000      0.00    0.0000
  24                   0.00    0.0000      0.00    0.0000
  25                   0.00    0.0000      0.00    0.0000
  26                   0.00    0.0000      0.00    0.0000
  27                   0.00    0.0000      0.00    0.0000
  28                  54.40    0.5286      0.62    0.0158
  29                 118.70    0.3212      0.12    0.0153
  3                   26.00    0.4076      0.52    0.0174
  30                   0.00    0.0000      0.00    0.0000
  31                 157.30    0.2569      0.06    0.0152
  32                   0.00    0.0000      0.00    0.0000
  33                 138.70    0.3753      0.16    0.0149
  34                 157.30    0.3267      0.10    0.0149
  36                  26.80    0.4201      0.55    0.0173
  37                   0.00    0.0000      0.00    0.0000
  38                   0.00    0.0000      0.00    0.0000
  4                    0.00    0.0000      0.00    0.0000
  40                   0.00    0.0000      0.00    0.0000
  41                 118.70    0.3212      0.12    0.0153
  42                  20.00    1.2280      8.56    0.0160
  43                 138.70    0.3753      0.16    0.0149
  44                   0.00    0.0000      0.00    0.0000
  45                   0.00    0.0000      0.00    0.0000
  46                  20.00    0.4986      0.98    0.0175
  47                 118.70    0.4371      0.25    0.0149
  48                 118.70    0.4371      0.25    0.0149
  5                    0.00    0.0000      0.00    0.0000
  50                   0.00    0.0000      0.00    0.0000
  51                 157.30    0.3267      0.10    0.0151
  52                   0.00    0.0000      0.00    0.0000
  53                   0.00    0.0000      0.00    0.0000
  54                 310.00    0.2854      0.05    0.0141
  56                   0.00    0.0000      0.00    0.0000
  57                   0.00    0.0000      0.00    0.0000
  58                   0.00    0.0000      0.00    0.0000
  59                   0.00    0.0000      0.00    0.0000
  6                    0.00    0.0000      0.00    0.0000
  60                   0.00    0.0000      0.00    0.0000
  61                  54.40    0.5286      0.62    0.0158
  62                  26.00    0.2526      0.16    0.0183
  63                 211.70    0.3457      0.10    0.0144
  64                  28.40    1.7438     16.14    0.0150
  65                   0.00    0.0000      0.00    0.0000
  66                  54.40    0.2716      0.13    0.0170
  67                  26.00    0.2526      0.16    0.0183
  68                  26.00    1.5965     13.75    0.0153
  69                  54.40    0.3390      0.21    0.0165
  7                   18.60    0.2916      0.28    0.0187
  70                  26.00    0.4076      0.52    0.0174
  71                  26.80    1.6456     14.53    0.0152
  72                   0.00    0.0000      0.00    0.0000
  73                   0.00    0.0000      0.00    0.0000
  74                 310.00    0.2854      0.05    0.0145
  76                   0.00    0.0000      0.00    0.0000
  77                   0.00    0.0000      0.00    0.0000
  78                  70.00    1.0973      3.09    0.0144
  79                   0.00    0.0000      0.00    0.0000
  8                    0.00    0.0000      0.00    0.0000
  80                 118.70    0.3212      0.12    0.0153
  81                   0.00    0.0000      0.00    0.0000
  82                   0.00    0.0000      0.00    0.0000
  83                   0.00    0.0000      0.00    0.0000
  84                  44.80    0.7023      1.38    0.0156
  86                   0.00    0.0000      0.00    0.0000
  87                   0.00    0.0000      0.00    0.0000
  88                   0.00    0.0000      0.00    0.0000
  89                   0.00    0.0000      0.00    0.0000
  9                  310.00    0.2854      0.05    0.0142
  90                  26.00    0.4076      0.52    0.0174
  92                   0.00    0.0000      0.00    0.0000
  93                   0.00    0.0000      0.00    0.0000
  94                   0.00    0.0000      0.00    0.0000
  95                   0.00    0.0000      0.00    0.0000
  96                  -0.00    0.0000      0.00    0.0000
  97                  -0.00    0.0000      0.00    0.0000
  98                   0.00    0.0000      0.00    0.0000
  99                   0.00    0.0000      0.00    0.0000
  55                   0.00    0.0000      0.00    0.0000
  101                 -0.00    0.0000      0.00    0.0000
  108                  0.00    0.0000      0.00    0.0000
  109                  0.00    0.0000      0.00    0.0000
  49                  -0.00    0.0000      0.00    0.0000
  85                  -0.00    0.0000      0.00    0.0000
  91                  -0.00    0.0000      0.00    0.0000
  110                  0.00    0.0000      0.00    0.0000
  111                  0.00    0.0000      0.00    0.0000
  17                   0.00    0.0000      0.00    0.0000
  18                   0.00    0.0000      0.00    0.0000
  39                   0.00    0.0000      0.00    0.0000
  75                   0.00    0.0000      0.00    0.0000
  114                 -0.00    0.0000      0.00    0.0000
   
  Analysis ended Tue Jun  1 20:54:11 2021
