  Page 1                                    Tue Jun  1 20:54:14 2021

  ******************************************************************
  *                           E P A N E T                          *
  *                   Hydraulic and Water Quality                  *
  *                   Analysis for Pipe Networks                   *
  *                         Version 2.00.12                        *
  ******************************************************************
  
  C:\Mario\Violada 
   
      Input Data File ................... /home/borja/Escritorio/nery/epanet-telecontrol/flowpath/tmp.inp
      Number of Junctions................ 146
      Number of Reservoirs............... 1
      Number of Tanks ................... 0
      Number of Pipes ................... 146
      Number of Pumps ................... 0
      Number of Valves .................. 0
      Headloss Formula .................. Darcy-Weisbach
      Hydraulic Timestep ................ 1.00 hrs
      Hydraulic Accuracy ................ 0.001000
      Status Check Frequency ............ 2
      Maximum Trials Checked ............ 10
      Damping Limit Threshold ........... 0.000000
      Maximum Trials .................... 40
      Quality Analysis .................. None
      Specific Gravity .................. 1.00
      Relative Kinematic Viscosity ...... 1.00
      Relative Chemical Diffusivity ..... 1.00
      Demand Multiplier ................. 1.00
      Total Duration .................... 0.00 hrs
      Reporting Criteria:
         Selected Nodes
         No Links
         with Velocity above 3.00 m/s
   
  Analysis begun Tue Jun  1 20:54:14 2021

   
  Node Results:
  ----------------------------------------------
                     Demand      Head  Pressure
  Node                  L/s         m         m
  ----------------------------------------------
  213               0.000000e+00   4.488219e+02   6.592194e+01
  241               0.000000e+00   4.481332e+02   7.489317e+01
  245               0.000000e+00   4.483282e+02   9.820824e+01
  256               0.000000e+00   4.487818e+02   8.257180e+01
  276               0.000000e+00   4.487381e+02   6.664808e+01
  277               2.600000e+01   4.468506e+02   6.659057e+01
  286               0.000000e+00   4.470308e+02   6.520084e+01
  296               0.000000e+00   4.487988e+02   6.763880e+01
   
   
  Link Results:
  --------------------------------------------------------
                       Flow  Velocity  Headloss  F-Factor
  Link                  L/s       m/s    /1000m          
  --------------------------------------------------------
  1                    0.00    0.0000      0.00    0.0000
  10                  20.00    0.1943      0.10    0.0194
  100                  0.00    0.0000      0.00    0.0000
  102                  0.00    0.0000      0.00    0.0000
  103                 -0.00    0.0000      0.00    0.0000
  104                 -0.00    0.0000      0.00    0.0000
  105                 23.00    0.5733      1.26    0.0170
  106                 33.30    0.8301      2.46    0.0158
  107                 21.60    0.1346      0.04    0.0199
  11                  20.00    0.4986      0.98    0.0175
  112                 67.60    0.2489      0.09    0.0166
  113                  0.00    0.0000      0.00    0.0000
  117                100.90    0.2730      0.09    0.0158
  118                 67.60    0.2489      0.09    0.0166
  119                 67.60    0.2489      0.09    0.0166
  12                   0.00    0.0000      0.00    0.0000
  120                  0.00    0.0000      0.00    0.0000
  122                  0.00    0.0000      0.00    0.0000
  123                 21.60    0.3386      0.37    0.0182
  126                  0.00    0.0000      0.00    0.0000
  127                  0.00    0.0000      0.00    0.0000
  128                 67.60    0.3375      0.19    0.0161
  131                 67.60    0.4213      0.32    0.0160
  132                 67.60    0.3375      0.19    0.0161
  134                  0.00    0.0000      0.00    0.0000
  136                 23.00    0.2235      0.13    0.0188
  137                 23.00    1.4122     11.02    0.0156
  138                 23.00    0.5733      1.26    0.0170
  139                  0.00    0.0000      0.00    0.0000
  14                   0.00    0.0000      0.00    0.0000
  142                  0.00    0.0000      0.00    0.0000
  143                  0.00    0.0000      0.00    0.0000
  144                 -0.00    0.0000      0.00    0.0000
  145                 21.60    0.2099      0.12    0.0190
  148                 21.60    0.1346      0.04    0.0201
  149                 21.60    0.1346      0.04    0.0200
  15                   0.00    0.0000      0.00    0.0000
  150                 21.60    0.3386      0.37    0.0181
  151                 21.60    1.3263      9.83    0.0158
  156                  0.00    0.0000      0.00    0.0000
  16                   0.00    0.0000      0.00    0.0000
  160                 26.00    0.4076      0.52    0.0174
  162                  0.00    0.0000      0.00    0.0000
  171                 26.00    1.0105      4.58    0.0159
  172                 26.00    0.4076      0.52    0.0175
  175                  0.00    0.0000      0.00    0.0000
  181                 -0.00    0.0000      0.00    0.0000
  183                  0.00    0.0000      0.00    0.0000
  184                  0.00    0.0000      0.00    0.0000
  185                  0.00    0.0000      0.00    0.0000
  19                   0.00    0.0000      0.00    0.0000
  2                  100.90    0.2730      0.09    0.0158
  20                  -0.00    0.0000      0.00    0.0000
  21                  18.00    0.6996      2.36    0.0171
  22                 120.00    0.4419      0.25    0.0148
  23                   0.00    0.0000      0.00    0.0000
  24                  18.00    0.2822      0.27    0.0188
  25                  18.00    0.2822      0.27    0.0188
  26                 120.00    0.5991      0.52    0.0144
  27                  18.00    0.6996      2.36    0.0171
  28                  26.00    0.2526      0.16    0.0183
  29                  48.70    0.1318      0.02    0.0184
  3                   26.00    0.4076      0.52    0.0174
  30                   0.00    0.0000      0.00    0.0000
  31                 186.70    0.3049      0.08    0.0147
  32                 120.00    0.5991      0.52    0.0144
  33                  48.70    0.1318      0.02    0.0183
  34                 186.70    0.3877      0.14    0.0144
  36                  33.30    0.5220      0.81    0.0166
  37                   0.00    0.0000      0.00    0.0000
  38                   0.00    0.0000      0.00    0.0000
  4                   20.00    0.1246      0.04    0.0203
  40                   0.00    0.0000      0.00    0.0000
  41                  48.70    0.1318      0.02    0.0183
  42                   0.00    0.0000      0.00    0.0000
  43                  66.70    0.1805      0.04    0.0172
  44                   0.00    0.0000      0.00    0.0000
  45                   0.00    0.0000      0.00    0.0000
  46                   0.00    0.0000      0.00    0.0000
  47                  48.70    0.1793      0.05    0.0178
  48                  48.70    0.1793      0.05    0.0179
  5                    0.00    0.0000      0.00    0.0000
  50                   0.00    0.0000      0.00    0.0000
  51                 186.70    0.3877      0.14    0.0145
  52                  -0.00    0.0000      0.00    0.0000
  53                   0.00    0.0000      0.00    0.0000
  54                 313.60    0.2887      0.05    0.0141
  56                   0.00    0.0000      0.00    0.0000
  57                   0.00    0.0000      0.00    0.0000
  58                  -0.00    0.0000      0.00    0.0000
  59                  -0.00    0.0000      0.00    0.0000
  6                  100.00    0.6232      0.64    0.0146
  60                   0.00    0.0000      0.00    0.0000
  61                  26.00    0.2526      0.16    0.0183
  62                  26.00    0.2526      0.16    0.0183
  63                 212.70    0.3473      0.10    0.0144
  64                   0.00    0.0000      0.00    0.0000
  65                   0.00    0.0000      0.00    0.0000
  66                  26.00    0.1298      0.03    0.0190
  67                  26.00    0.2526      0.16    0.0183
  68                  26.00    1.5965     13.75    0.0153
  69                  26.00    0.1620      0.06    0.0192
  7                    0.00    0.0000      0.00    0.0000
  70                  26.00    0.4076      0.52    0.0174
  71                   0.00    0.0000      0.00    0.0000
  72                   0.00    0.0000      0.00    0.0000
  73                  -0.00    0.0000      0.00    0.0000
  74                 313.60    0.2887      0.05    0.0142
  76                   0.00    0.0000      0.00    0.0000
  77                   0.00    0.0000      0.00    0.0000
  78                   0.00    0.0000      0.00    0.0000
  79                   0.00    0.0000      0.00    0.0000
  8                    0.00    0.0000      0.00    0.0000
  80                  48.70    0.1318      0.02    0.0183
  81                   0.00    0.0000      0.00    0.0000
  82                   0.00    0.0000      0.00    0.0000
  83                   0.00    0.0000      0.00    0.0000
  84                  33.30    0.5220      0.81    0.0166
  86                   0.00    0.0000      0.00    0.0000
  87                   0.00    0.0000      0.00    0.0000
  88                   0.00    0.0000      0.00    0.0000
  89                   0.00    0.0000      0.00    0.0000
  9                  313.60    0.2887      0.05    0.0141
  90                  26.00    0.4076      0.52    0.0174
  92                   0.00    0.0000      0.00    0.0000
  93                  -0.00    0.0000      0.00    0.0000
  94                   0.00    0.0000      0.00    0.0000
  95                   0.00    0.0000      0.00    0.0000
  96                  -0.00    0.0000      0.00    0.0000
  97                  23.00    1.4122     11.02    0.0156
  98                   0.00    0.0000      0.00    0.0000
  99                   0.00    0.0000      0.00    0.0000
  55                  46.00    0.4469      0.46    0.0163
  101                  0.00    0.0000      0.00    0.0000
  108                 46.00    0.4469      0.46    0.0163
  109                  0.00    0.0000      0.00    0.0000
  49                  -0.00    0.0000      0.00    0.0000
  85                 -20.00    0.1246      0.04    0.0203
  91                  -0.00    0.0000      0.00    0.0000
  110                  0.00    0.0000      0.00    0.0000
  111                  0.00    0.0000      0.00    0.0000
  17                   0.00    0.0000      0.00    0.0000
  18                   0.00    0.0000      0.00    0.0000
  39                   0.00    0.0000      0.00    0.0000
  75                   0.00    0.0000      0.00    0.0000
  114                 -0.00    0.0000      0.00    0.0000
   
  Analysis ended Tue Jun  1 20:54:14 2021
