  Page 1                                    Tue Jun  1 20:54:19 2021

  ******************************************************************
  *                           E P A N E T                          *
  *                   Hydraulic and Water Quality                  *
  *                   Analysis for Pipe Networks                   *
  *                         Version 2.00.12                        *
  ******************************************************************
  
  C:\Mario\Violada 
   
      Input Data File ................... /home/borja/Escritorio/nery/epanet-telecontrol/flowpath/tmp.inp
      Number of Junctions................ 146
      Number of Reservoirs............... 1
      Number of Tanks ................... 0
      Number of Pipes ................... 146
      Number of Pumps ................... 0
      Number of Valves .................. 0
      Headloss Formula .................. Darcy-Weisbach
      Hydraulic Timestep ................ 1.00 hrs
      Hydraulic Accuracy ................ 0.001000
      Status Check Frequency ............ 2
      Maximum Trials Checked ............ 10
      Damping Limit Threshold ........... 0.000000
      Maximum Trials .................... 40
      Quality Analysis .................. None
      Specific Gravity .................. 1.00
      Relative Kinematic Viscosity ...... 1.00
      Relative Chemical Diffusivity ..... 1.00
      Demand Multiplier ................. 1.00
      Total Duration .................... 0.00 hrs
      Reporting Criteria:
         Selected Nodes
         No Links
         with Velocity above 3.00 m/s
   
  Analysis begun Tue Jun  1 20:54:19 2021

   
  Node Results:
  ----------------------------------------------
                     Demand      Head  Pressure
  Node                  L/s         m         m
  ----------------------------------------------
  213               0.000000e+00   4.476323e+02   6.473225e+01
  241               0.000000e+00   4.482608e+02   7.502079e+01
  245               0.000000e+00   4.484559e+02   9.833586e+01
  256               0.000000e+00   4.483043e+02   8.209432e+01
  276               0.000000e+00   4.479543e+02   6.586431e+01
  277               2.600000e+01   4.430639e+02   6.280393e+01
  286               0.000000e+00   4.461543e+02   6.432431e+01
  296               2.600000e+01   4.409442e+02   5.978421e+01
   
   
  Link Results:
  --------------------------------------------------------
                       Flow  Velocity  Headloss  F-Factor
  Link                  L/s       m/s    /1000m          
  --------------------------------------------------------
  1                   40.70    1.0146      3.53    0.0152
  10                  20.00    0.1943      0.10    0.0194
  100                  0.00    0.0000      0.00    0.0000
  102                 47.50    0.7446      1.53    0.0155
  103                 26.00    0.6481      1.57    0.0166
  104                 50.10    0.7853      1.69    0.0153
  105                 24.00    0.5983      1.36    0.0169
  106                 26.80    0.6681      1.66    0.0165
  107                 65.50    0.4082      0.30    0.0159
  11                  20.00    0.4986      0.98    0.0175
  112                185.60    0.6835      0.55    0.0137
  113                 40.70    0.6380      1.16    0.0159
  117                292.20    0.7906      0.60    0.0130
  118                185.60    0.6835      0.55    0.0137
  119                226.30    0.8334      0.80    0.0132
  12                   0.00    0.0000      0.00    0.0000
  120                 18.00    0.2822      0.27    0.0188
  122                  0.00    0.0000      0.00    0.0000
  123                  0.00    0.0000      0.00    0.0000
  126                 18.00    0.4487      0.81    0.0179
  127                 18.00    0.4487      0.81    0.0179
  128                185.60    0.9266      1.15    0.0133
  131                167.60    1.0445      1.64    0.0133
  132                185.60    0.9266      1.15    0.0133
  134                  0.00    0.0000      0.00    0.0000
  136                 74.10    0.7200      1.08    0.0149
  137                  0.00    0.0000      0.00    0.0000
  138                 28.00    0.6980      1.80    0.0164
  139                  0.00    0.0000      0.00    0.0000
  14                   0.00    0.0000      0.00    0.0000
  142                 -0.00    0.0000      0.00    0.0000
  143                  0.00    0.0000      0.00    0.0000
  144                 26.00    1.0105      4.58    0.0159
  145                 18.00    0.1749      0.09    0.0198
  148                 65.50    0.4082      0.30    0.0159
  149                 65.50    0.4082      0.30    0.0159
  15                   0.00    0.0000      0.00    0.0000
  150                  0.00    0.0000      0.00    0.0000
  151                  0.00    0.0000      0.00    0.0000
  156                  0.00    0.0000      0.00    0.0000
  16                   0.00    0.0000      0.00    0.0000
  160                 66.30    1.0393      2.80    0.0145
  162                 21.00    0.3292      0.35    0.0182
  171                 26.00    1.0105      4.58    0.0159
  172                 26.00    0.4076      0.52    0.0175
  175                  0.00    0.0000      0.00    0.0000
  181                 71.20    1.7749      9.76    0.0137
  183                 -0.00    0.0000      0.00    0.0000
  184                 18.00    0.2822      0.27    0.0188
  185                 18.00    0.2822      0.27    0.0188
  19                  50.00    1.9432     14.97    0.0141
  2                  292.20    0.7906      0.60    0.0130
  20                  -0.00    0.0000      0.00    0.0000
  21                  18.00    0.6996      2.36    0.0171
  22                  20.00    0.0737      0.01    0.0216
  23                   0.00    0.0000      0.00    0.0000
  24                  43.00    0.6740      1.28    0.0158
  25                  43.00    0.6740      1.28    0.0158
  26                  20.00    0.0999      0.02    0.0207
  27                  18.00    0.6996      2.36    0.0171
  28                 105.40    1.0241      2.05    0.0139
  29                 166.70    0.4510      0.22    0.0144
  3                   84.30    1.3214      4.33    0.0139
  30                  50.00    0.7838      1.68    0.0153
  31                 279.70    0.4568      0.16    0.0137
  32                  20.00    0.0999      0.02    0.0208
  33                 166.70    0.4510      0.22    0.0144
  34                 229.70    0.4770      0.21    0.0139
  36                  65.90    1.0330      2.77    0.0145
  37                   0.00    0.0000      0.00    0.0000
  38                   0.00    0.0000      0.00    0.0000
  4                   20.00    0.1246      0.04    0.0203
  40                   0.00    0.0000      0.00    0.0000
  41                 166.70    0.4510      0.22    0.0144
  42                   0.00    0.0000      0.00    0.0000
  43                 209.70    0.5674      0.33    0.0138
  44                   0.00    0.0000      0.00    0.0000
  45                  -0.00    0.0000      0.00    0.0000
  46                   0.00    0.0000      0.00    0.0000
  47                 136.70    0.5034      0.32    0.0145
  48                 136.70    0.5034      0.32    0.0145
  5                    0.00    0.0000      0.00    0.0000
  50                   0.00    0.0000      0.00    0.0000
  51                 279.70    0.5809      0.29    0.0133
  52                  -0.00    0.0000      0.00    0.0000
  53                  18.00    0.0899      0.02    0.0214
  54                 720.40    0.6632      0.23    0.0122
  56                  50.00    0.7838      1.68    0.0153
  57                  71.20    1.1161      3.19    0.0143
  58                   0.00    0.0000      0.00    0.0000
  59                  71.20    1.1161      3.19    0.0143
  6                    0.00    0.0000      0.00    0.0000
  60                   0.00    0.0000      0.00    0.0000
  61                 105.40    1.0241      2.05    0.0139
  62                 105.40    1.0241      2.05    0.0139
  63                 407.10    0.6648      0.33    0.0128
  64                   0.00    0.0000      0.00    0.0000
  65                   0.00    0.0000      0.00    0.0000
  66                 127.40    0.6361      0.58    0.0142
  67                 105.40    1.0241      2.05    0.0139
  68                  26.00    1.5965     13.75    0.0153
  69                 127.40    0.7940      0.99    0.0140
  7                   -0.00    0.0000      0.00    0.0000
  70                  45.30    0.7101      1.41    0.0156
  71                  26.80    1.6456     14.53    0.0152
  72                  -0.00    0.0000      0.00    0.0000
  73                   0.00    0.0000      0.00    0.0000
  74                 699.30    0.6438      0.22    0.0122
  76                  30.00    0.2915      0.21    0.0178
  77                   0.00    0.0000      0.00    0.0000
  78                  70.00    1.0973      3.09    0.0144
  79                  -0.00    0.0000      0.00    0.0000
  8                    0.00    0.0000      0.00    0.0000
  80                 166.70    0.4510      0.22    0.0144
  81                  -0.00    0.0000      0.00    0.0000
  82                  18.00    0.1122      0.03    0.0203
  83                  -0.00    0.0000      0.00    0.0000
  84                  65.90    1.0330      2.77    0.0145
  86                  21.10    1.2956      9.43    0.0159
  87                  22.00    1.3508     10.17    0.0157
  88                  18.00    0.1122      0.03    0.0210
  89                   0.00    0.0000      0.00    0.0000
  9                  791.60    0.7288      0.28    0.0120
  90                  84.30    1.3214      4.33    0.0139
  92                   0.00    0.0000      0.00    0.0000
  93                  26.00    1.5965     13.75    0.0153
  94                   0.00    0.0000      0.00    0.0000
  95                  18.00    0.6996      2.36    0.0171
  96                  30.80    0.7678      2.14    0.0161
  97                  -0.00    0.0000      0.00    0.0000
  98                   0.00    0.0000      0.00    0.0000
  99                  23.20    1.4245     11.19    0.0156
  55                 102.10    0.9920      1.94    0.0140
  101                  0.00    0.0000      0.00    0.0000
  108                102.10    0.9920      1.94    0.0140
  109                  0.00    0.0000      0.00    0.0000
  49                 -30.00    0.2915      0.21    0.0178
  85                 -20.00    0.1246      0.04    0.0203
  91                  -0.00    0.0000      0.00    0.0000
  110                  0.00    0.0000      0.00    0.0000
  111                  0.00    0.0000      0.00    0.0000
  17                  -0.00    0.0000      0.00    0.0000
  18                  18.00    1.1052      7.08    0.0164
  39                   0.00    0.0000      0.00    0.0000
  75                   0.00    0.0000      0.00    0.0000
  114                  0.00    0.0000      0.00    0.0000
   
  Analysis ended Tue Jun  1 20:54:19 2021
