  Page 1                                    Tue Jun  1 20:54:20 2021

  ******************************************************************
  *                           E P A N E T                          *
  *                   Hydraulic and Water Quality                  *
  *                   Analysis for Pipe Networks                   *
  *                         Version 2.00.12                        *
  ******************************************************************
  
  C:\Mario\Violada 
   
      Input Data File ................... /home/borja/Escritorio/nery/epanet-telecontrol/flowpath/tmp.inp
      Number of Junctions................ 146
      Number of Reservoirs............... 1
      Number of Tanks ................... 0
      Number of Pipes ................... 146
      Number of Pumps ................... 0
      Number of Valves .................. 0
      Headloss Formula .................. Darcy-Weisbach
      Hydraulic Timestep ................ 1.00 hrs
      Hydraulic Accuracy ................ 0.001000
      Status Check Frequency ............ 2
      Maximum Trials Checked ............ 10
      Damping Limit Threshold ........... 0.000000
      Maximum Trials .................... 40
      Quality Analysis .................. None
      Specific Gravity .................. 1.00
      Relative Kinematic Viscosity ...... 1.00
      Relative Chemical Diffusivity ..... 1.00
      Demand Multiplier ................. 1.00
      Total Duration .................... 0.00 hrs
      Reporting Criteria:
         Selected Nodes
         No Links
         with Velocity above 3.00 m/s
   
  Analysis begun Tue Jun  1 20:54:20 2021

   
  Node Results:
  ----------------------------------------------
                     Demand      Head  Pressure
  Node                  L/s         m         m
  ----------------------------------------------
  213               0.000000e+00   4.435926e+02   6.069261e+01
  241               2.800000e+01   4.286227e+02   5.538269e+01
  245               0.000000e+00   4.302863e+02   8.016626e+01
  256               0.000000e+00   4.453055e+02   7.909547e+01
  276               0.000000e+00   4.440231e+02   6.193309e+01
  277               2.600000e+01   4.438568e+02   6.359678e+01
  286               1.800000e+01   4.329678e+02   5.113777e+01
  296               2.600000e+01   4.351043e+02   5.394434e+01
   
   
  Link Results:
  --------------------------------------------------------
                       Flow  Velocity  Headloss  F-Factor
  Link                  L/s       m/s    /1000m          
  --------------------------------------------------------
  1                   40.70    1.0146      3.53    0.0152
  10                 173.00    1.6809      5.07    0.0127
  100                  0.00    0.0000      0.00    0.0000
  102                 71.50    1.1208      3.21    0.0143
  103                 50.00    1.2464      5.13    0.0147
  104                 19.30    0.3025      0.30    0.0185
  105                 47.00    1.1716      4.59    0.0148
  106                 78.10    1.9469     11.55    0.0135
  107                174.10    1.0850      1.75    0.0132
  11                 134.00    3.3404     30.97    0.0123
  112                365.40    1.3456      1.91    0.0122
  113                 40.70    0.6380      1.16    0.0159
  117                567.30    1.5349      2.03    0.0116
  118                391.40    1.4414      2.16    0.0120
  119                432.10    1.5912      2.59    0.0118
  12                  86.00    2.1438     13.76    0.0133
  120                 54.00    0.8465      1.93    0.0151
  122                 18.00    0.6996      2.36    0.0171
  123                 39.60    0.6207      1.10    0.0160
  126                 36.00    0.8974      2.83    0.0156
  127                 36.00    0.8974      2.83    0.0156
  128                365.40    1.8243      3.98    0.0119
  131                311.40    1.9407      5.08    0.0120
  132                365.40    1.8243      3.98    0.0119
  134                  0.00    0.0000      0.00    0.0000
  136                 66.30    0.6442      0.89    0.0152
  137                 23.00    1.4122     11.02    0.0156
  138                 51.00    1.2713      5.32    0.0146
  139                  0.00    0.0000      0.00    0.0000
  14                  51.00    0.7994      1.74    0.0152
  142                 -0.00    0.0000      0.00    0.0000
  143                  0.00    0.0000      0.00    0.0000
  144                 26.00    1.0105      4.58    0.0159
  145                 57.60    0.5596      0.69    0.0156
  148                156.10    0.9728      1.44    0.0135
  149                156.10    0.9728      1.44    0.0135
  15                 106.00    1.6616      6.58    0.0133
  150                 21.60    0.3386      0.37    0.0181
  151                 21.60    1.3263      9.83    0.0158
  156                  0.00    0.0000      0.00    0.0000
  16                  18.00    0.4487      0.81    0.0179
  160                 47.00    0.7367      1.50    0.0155
  162                 21.00    0.3292      0.35    0.0182
  171                 26.00    1.0105      4.58    0.0159
  172                 26.00    0.4076      0.52    0.0175
  175                  0.00    0.0000      0.00    0.0000
  181                 71.20    1.7749      9.76    0.0137
  183                 18.00    0.6996      2.36    0.0171
  184                 18.00    0.2822      0.27    0.0188
  185                 18.00    0.2822      0.27    0.0188
  19                  50.00    1.9432     14.97    0.0141
  2                  567.30    1.5349      2.03    0.0116
  20                  -0.00    0.0000      0.00    0.0000
  21                  18.00    0.6996      2.36    0.0171
  22                 448.00    1.6498      2.77    0.0118
  23                  18.00    0.6996      2.36    0.0171
  24                  43.00    0.6740      1.28    0.0158
  25                  43.00    0.6740      1.28    0.0158
  26                 397.00    1.9821      4.64    0.0117
  27                  18.00    0.6996      2.36    0.0171
  28                  65.00    0.6315      0.85    0.0152
  29                 291.50    0.7887      0.60    0.0130
  3                   65.00    1.0189      2.70    0.0146
  30                  79.00    1.2384      3.85    0.0140
  31                 879.50    1.4362      1.34    0.0112
  32                 448.00    2.2367      5.79    0.0115
  33                 291.50    0.7887      0.60    0.0130
  34                 782.50    1.6251      1.93    0.0112
  36                 117.20    1.8372      7.90    0.0131
  37                   0.00    0.0000      0.00    0.0000
  38                  18.00    0.1122      0.03    0.0208
  4                  297.00    1.8509      4.66    0.0121
  40                  18.00    0.6996      2.36    0.0171
  41                 291.50    0.7887      0.60    0.0130
  42                   0.00    0.0000      0.00    0.0000
  43                 334.50    0.9050      0.77    0.0127
  44                  41.80    1.0420      3.71    0.0152
  45                  41.80    1.6245     10.81    0.0146
  46                   0.00    0.0000      0.00    0.0000
  47                 201.70    0.7428      0.64    0.0135
  48                 180.70    0.6654      0.53    0.0138
  5                    0.00    0.0000      0.00    0.0000
  50                  18.00    0.6996      2.36    0.0171
  51                 861.50    1.7891      2.30    0.0111
  52                  18.00    1.1052      7.08    0.0164
  53                  62.00    0.3095      0.16    0.0164
  54                1577.80    1.4526      0.98    0.0107
  56                  50.00    0.7838      1.68    0.0153
  57                 109.50    1.7165      6.98    0.0132
  58                  -0.00    0.0000      0.00    0.0000
  59                 109.50    1.7165      6.98    0.0132
  6                  100.00    0.6232      0.64    0.0146
  60                   0.00    0.0000      0.00    0.0000
  61                  87.90    0.8540      1.48    0.0144
  62                  65.00    0.6315      0.85    0.0152
  63                 989.40    1.6157      1.66    0.0110
  64                   0.00    0.0000      0.00    0.0000
  65                  18.00    1.1052      7.08    0.0164
  66                 109.90    0.5487      0.45    0.0147
  67                  65.00    0.6315      0.85    0.0152
  68                  26.00    1.5965     13.75    0.0153
  69                 109.90    0.6849      0.76    0.0144
  7                    0.00    0.0000      0.00    0.0000
  70                  26.00    0.4076      0.52    0.0174
  71                  26.80    1.6456     14.53    0.0152
  72                  18.00    1.1052      7.08    0.0164
  73                   0.00    0.0000      0.00    0.0000
  74                1556.70    1.4332      0.95    0.0107
  76                  48.00    0.4664      0.49    0.0162
  77                   0.00    0.0000      0.00    0.0000
  78                  70.00    1.0973      3.09    0.0144
  79                  21.00    1.2894      9.35    0.0159
  8                   20.00    1.2280      8.56    0.0160
  80                 249.70    0.6756      0.45    0.0133
  81                   0.00    0.0000      0.00    0.0000
  82                  36.00    0.2244      0.10    0.0179
  83                   0.00    0.0000      0.00    0.0000
  84                 135.20    2.1193     10.25    0.0128
  86                   0.00    0.0000      0.00    0.0000
  87                  22.00    1.3508     10.17    0.0157
  88                  18.00    0.1122      0.03    0.0210
  89                  29.00    1.1271      5.57    0.0156
  9                 1687.30    1.5534      1.11    0.0106
  90                  65.00    1.0189      2.70    0.0146
  92                  26.00    0.1620      0.06    0.0189
  93                  26.00    1.5965     13.75    0.0153
  94                   0.00    0.0000      0.00    0.0000
  95                  18.00    0.6996      2.36    0.0171
  96                   0.00    0.0000      0.00    0.0000
  97                  23.00    1.4122     11.02    0.0156
  98                   0.00    0.0000      0.00    0.0000
  99                  23.20    1.4245     11.19    0.0156
  55                 137.30    1.3340      3.32    0.0133
  101                 20.00    1.2280      8.56    0.0160
  108                117.30    1.1397      2.49    0.0136
  109                  0.00    0.0000      0.00    0.0000
  49                 -48.00    0.4664      0.49    0.0162
  85                -279.00    1.7387      4.15    0.0122
  91                 -39.00    0.6113      1.07    0.0161
  110                  0.00    0.0000      0.00    0.0000
  111                 20.00    1.2280      8.56    0.0160
  17                   0.00    0.0000      0.00    0.0000
  18                  18.00    1.1052      7.08    0.0164
  39                   0.00    0.0000      0.00    0.0000
  75                   0.00    0.0000      0.00    0.0000
  114                -28.00    1.0882      5.23    0.0157
   
  Analysis ended Tue Jun  1 20:54:20 2021
