  Page 1                                    Tue Jun  1 20:54:21 2021

  ******************************************************************
  *                           E P A N E T                          *
  *                   Hydraulic and Water Quality                  *
  *                   Analysis for Pipe Networks                   *
  *                         Version 2.00.12                        *
  ******************************************************************
  
  C:\Mario\Violada 
   
      Input Data File ................... /home/borja/Escritorio/nery/epanet-telecontrol/flowpath/tmp.inp
      Number of Junctions................ 146
      Number of Reservoirs............... 1
      Number of Tanks ................... 0
      Number of Pipes ................... 146
      Number of Pumps ................... 0
      Number of Valves .................. 0
      Headloss Formula .................. Darcy-Weisbach
      Hydraulic Timestep ................ 1.00 hrs
      Hydraulic Accuracy ................ 0.001000
      Status Check Frequency ............ 2
      Maximum Trials Checked ............ 10
      Damping Limit Threshold ........... 0.000000
      Maximum Trials .................... 40
      Quality Analysis .................. None
      Specific Gravity .................. 1.00
      Relative Kinematic Viscosity ...... 1.00
      Relative Chemical Diffusivity ..... 1.00
      Demand Multiplier ................. 1.00
      Total Duration .................... 0.00 hrs
      Reporting Criteria:
         Selected Nodes
         No Links
         with Velocity above 3.00 m/s
   
  Analysis begun Tue Jun  1 20:54:21 2021

   
  Node Results:
  ----------------------------------------------
                     Demand      Head  Pressure
  Node                  L/s         m         m
  ----------------------------------------------
  213               0.000000e+00   4.483841e+02   6.548409e+01
  241               2.800000e+01   4.455508e+02   7.231081e+01
  245               0.000000e+00   4.483779e+02   9.825791e+01
  256               3.450000e+01   4.483956e+02   8.218559e+01
  276               0.000000e+00   4.481214e+02   6.603137e+01
  277               2.600000e+01   4.450581e+02   6.479812e+01
  286               0.000000e+00   4.432158e+02   6.138581e+01
  296               0.000000e+00   4.469781e+02   6.581812e+01
   
   
  Link Results:
  --------------------------------------------------------
                       Flow  Velocity  Headloss  F-Factor
  Link                  L/s       m/s    /1000m          
  --------------------------------------------------------
  1                   23.20    0.5783      1.28    0.0170
  10                  48.00    0.4664      0.49    0.0162
  100                  0.00    0.0000      0.00    0.0000
  102                 45.50    0.7132      1.42    0.0156
  103                 24.00    0.5983      1.36    0.0169
  104                 -0.00    0.0000      0.00    0.0000
  105                 23.00    0.5733      1.26    0.0170
  106                 60.10    1.4982      7.17    0.0142
  107                 85.10    0.5303      0.48    0.0151
  11                  48.00    1.1966      4.77    0.0148
  112                131.10    0.4828      0.29    0.0146
  113                 23.20    0.3637      0.42    0.0178
  117                214.40    0.5801      0.34    0.0137
  118                131.10    0.4828      0.29    0.0146
  119                154.30    0.5682      0.39    0.0141
  12                   0.00    0.0000      0.00    0.0000
  120                  0.00    0.0000      0.00    0.0000
  122                  0.00    0.0000      0.00    0.0000
  123                 21.60    0.3386      0.37    0.0182
  126                  0.00    0.0000      0.00    0.0000
  127                  0.00    0.0000      0.00    0.0000
  128                131.10    0.6545      0.61    0.0142
  131                131.10    0.8170      1.04    0.0138
  132                131.10    0.6545      0.61    0.0142
  134                  0.00    0.0000      0.00    0.0000
  136                 23.00    0.2235      0.13    0.0188
  137                 23.00    1.4122     11.02    0.0156
  138                 23.00    0.5733      1.26    0.0170
  139                  0.00    0.0000      0.00    0.0000
  14                   0.00    0.0000      0.00    0.0000
  142                  0.00    0.0000      0.00    0.0000
  143                  0.00    0.0000      0.00    0.0000
  144                  0.00    0.0000      0.00    0.0000
  145                 21.60    0.2099      0.12    0.0190
  148                 67.10    0.4182      0.31    0.0158
  149                 85.10    0.5303      0.48    0.0151
  15                   0.00    0.0000      0.00    0.0000
  150                 21.60    0.3386      0.37    0.0181
  151                 21.60    1.3263      9.83    0.0158
  156                  0.00    0.0000      0.00    0.0000
  16                   0.00    0.0000      0.00    0.0000
  160                 45.30    0.7101      1.41    0.0156
  162                  0.00    0.0000      0.00    0.0000
  171                 26.00    1.0105      4.58    0.0159
  172                 26.00    0.4076      0.52    0.0175
  175                  0.00    0.0000      0.00    0.0000
  181                 -0.00    0.0000      0.00    0.0000
  183                  0.00    0.0000      0.00    0.0000
  184                  0.00    0.0000      0.00    0.0000
  185                  0.00    0.0000      0.00    0.0000
  19                  50.00    1.9432     14.97    0.0141
  2                  214.40    0.5801      0.34    0.0137
  20                   0.00    0.0000      0.00    0.0000
  21                   0.00    0.0000      0.00    0.0000
  22                  48.00    0.1768      0.05    0.0178
  23                   0.00    0.0000      0.00    0.0000
  24                   0.00    0.0000      0.00    0.0000
  25                   0.00    0.0000      0.00    0.0000
  26                  48.00    0.2396      0.10    0.0172
  27                   0.00    0.0000      0.00    0.0000
  28                  63.30    0.6150      0.81    0.0153
  29                 148.70    0.4023      0.18    0.0147
  3                   63.30    0.9923      2.58    0.0146
  30                  50.00    0.7838      1.68    0.0153
  31                 281.20    0.4592      0.17    0.0137
  32                  48.00    0.2396      0.10    0.0173
  33                 183.20    0.4957      0.26    0.0141
  34                 231.20    0.4801      0.21    0.0139
  36                  60.10    0.9421      2.34    0.0148
  37                   0.00    0.0000      0.00    0.0000
  38                   0.00    0.0000      0.00    0.0000
  4                   48.00    0.2991      0.17    0.0169
  40                   0.00    0.0000      0.00    0.0000
  41                 183.20    0.4957      0.26    0.0141
  42                   0.00    0.0000      0.00    0.0000
  43                 183.20    0.4957      0.26    0.0141
  44                   0.00    0.0000      0.00    0.0000
  45                  -0.00    0.0000      0.00    0.0000
  46                   0.00    0.0000      0.00    0.0000
  47                 118.70    0.4371      0.25    0.0149
  48                 118.70    0.4371      0.25    0.0149
  5                   -0.00    0.0000      0.00    0.0000
  50                   0.00    0.0000      0.00    0.0000
  51                 281.20    0.5840      0.30    0.0133
  52                   0.00    0.0000      0.00    0.0000
  53                   0.00    0.0000      0.00    0.0000
  54                 558.90    0.5146      0.15    0.0127
  56                  50.00    0.7838      1.68    0.0153
  57                   0.00    0.0000      0.00    0.0000
  58                   0.00    0.0000      0.00    0.0000
  59                   0.00    0.0000      0.00    0.0000
  6                    0.00    0.0000      0.00    0.0000
  60                   0.00    0.0000      0.00    0.0000
  61                  63.30    0.6150      0.81    0.0153
  62                  63.30    0.6150      0.81    0.0153
  63                 344.50    0.5626      0.24    0.0132
  64                   0.00    0.0000      0.00    0.0000
  65                   0.00    0.0000      0.00    0.0000
  66                  63.30    0.3160      0.16    0.0162
  67                  63.30    0.6150      0.81    0.0153
  68                  26.00    1.5965     13.75    0.0153
  69                  63.30    0.3945      0.28    0.0160
  7                    0.00    0.0000      0.00    0.0000
  70                  45.30    0.7101      1.41    0.0156
  71                  26.80    1.6456     14.53    0.0152
  72                   0.00    0.0000      0.00    0.0000
  73                   0.00    0.0000      0.00    0.0000
  74                 558.90    0.5146      0.14    0.0126
  76                  30.00    0.2915      0.21    0.0178
  77                  -0.00    0.0000      0.00    0.0000
  78                  70.00    1.0973      3.09    0.0144
  79                   0.00    0.0000      0.00    0.0000
  8                    0.00    0.0000      0.00    0.0000
  80                 148.70    0.4023      0.18    0.0147
  81                   0.00    0.0000      0.00    0.0000
  82                   0.00    0.0000      0.00    0.0000
  83                   0.00    0.0000      0.00    0.0000
  84                  60.10    0.9421      2.34    0.0148
  86                   0.00    0.0000      0.00    0.0000
  87                   0.00    0.0000      0.00    0.0000
  88                   0.00    0.0000      0.00    0.0000
  89                   0.00    0.0000      0.00    0.0000
  9                  558.90    0.5146      0.15    0.0127
  90                  63.30    0.9923      2.58    0.0146
  92                  -0.00    0.0000      0.00    0.0000
  93                   0.00    0.0000      0.00    0.0000
  94                   0.00    0.0000      0.00    0.0000
  95                   0.00    0.0000      0.00    0.0000
  96                  -0.00    0.0000      0.00    0.0000
  97                  23.00    1.4122     11.02    0.0156
  98                   0.00    0.0000      0.00    0.0000
  99                  23.20    1.4245     11.19    0.0156
  55                  46.00    0.4469      0.46    0.0163
  101                  0.00    0.0000      0.00    0.0000
  108                 46.00    0.4469      0.46    0.0163
  109                  0.00    0.0000      0.00    0.0000
  49                 -30.00    0.2915      0.21    0.0178
  85                 -48.00    0.2991      0.17    0.0169
  91                  -0.00    0.0000      0.00    0.0000
  110                  0.00    0.0000      0.00    0.0000
  111                  0.00    0.0000      0.00    0.0000
  17                   0.00    0.0000      0.00    0.0000
  18                   0.00    0.0000      0.00    0.0000
  39                   0.00    0.0000      0.00    0.0000
  75                  -0.00    0.0000      0.00    0.0000
  114                -28.00    1.0882      5.23    0.0157
   
  Analysis ended Tue Jun  1 20:54:21 2021
