  Page 1                                    Tue Jun  1 20:54:23 2021

  ******************************************************************
  *                           E P A N E T                          *
  *                   Hydraulic and Water Quality                  *
  *                   Analysis for Pipe Networks                   *
  *                         Version 2.00.12                        *
  ******************************************************************
  
  C:\Mario\Violada 
   
      Input Data File ................... /home/borja/Escritorio/nery/epanet-telecontrol/flowpath/tmp.inp
      Number of Junctions................ 146
      Number of Reservoirs............... 1
      Number of Tanks ................... 0
      Number of Pipes ................... 146
      Number of Pumps ................... 0
      Number of Valves .................. 0
      Headloss Formula .................. Darcy-Weisbach
      Hydraulic Timestep ................ 1.00 hrs
      Hydraulic Accuracy ................ 0.001000
      Status Check Frequency ............ 2
      Maximum Trials Checked ............ 10
      Damping Limit Threshold ........... 0.000000
      Maximum Trials .................... 40
      Quality Analysis .................. None
      Specific Gravity .................. 1.00
      Relative Kinematic Viscosity ...... 1.00
      Relative Chemical Diffusivity ..... 1.00
      Demand Multiplier ................. 1.00
      Total Duration .................... 0.00 hrs
      Reporting Criteria:
         Selected Nodes
         No Links
         with Velocity above 3.00 m/s
   
  Analysis begun Tue Jun  1 20:54:23 2021

   
  Node Results:
  ----------------------------------------------
                     Demand      Head  Pressure
  Node                  L/s         m         m
  ----------------------------------------------
  213               0.000000e+00   4.488347e+02   6.593467e+01
  241               2.800000e+01   4.456673e+02   7.242727e+01
  245               0.000000e+00   4.484944e+02   9.837437e+01
  256               0.000000e+00   4.485927e+02   8.238271e+01
  276               0.000000e+00   4.483755e+02   6.628554e+01
  277               0.000000e+00   4.480151e+02   6.775515e+01
  286               0.000000e+00   4.489361e+02   6.710613e+01
  296               0.000000e+00   4.486342e+02   6.747424e+01
   
   
  Link Results:
  --------------------------------------------------------
                       Flow  Velocity  Headloss  F-Factor
  Link                  L/s       m/s    /1000m          
  --------------------------------------------------------
  1                   23.20    0.5783      1.28    0.0170
  10                  48.00    0.4664      0.49    0.0161
  100                  0.00    0.0000      0.00    0.0000
  102                 21.50    0.3370      0.37    0.0181
  103                  0.00    0.0000      0.00    0.0000
  104                  0.00    0.0000      0.00    0.0000
  105                  0.00    0.0000      0.00    0.0000
  106                  0.00    0.0000      0.00    0.0000
  107                 39.50    0.2462      0.12    0.0175
  11                  48.00    1.1966      4.77    0.0148
  112                 62.50    0.2302      0.08    0.0168
  113                 23.20    0.3637      0.42    0.0178
  117                 85.70    0.2319      0.07    0.0163
  118                 62.50    0.2302      0.08    0.0169
  119                 85.70    0.3156      0.14    0.0160
  12                  -0.00    0.0000      0.00    0.0000
  120                  0.00    0.0000      0.00    0.0000
  122                  0.00    0.0000      0.00    0.0000
  123                  0.00    0.0000      0.00    0.0000
  126                  0.00    0.0000      0.00    0.0000
  127                  0.00    0.0000      0.00    0.0000
  128                 62.50    0.3120      0.16    0.0164
  131                 62.50    0.3895      0.28    0.0161
  132                 62.50    0.3120      0.16    0.0164
  134                  0.00    0.0000      0.00    0.0000
  136                  0.00    0.0000      0.00    0.0000
  137                  0.00    0.0000      0.00    0.0000
  138                 23.00    0.5733      1.26    0.0170
  139                  0.00    0.0000      0.00    0.0000
  14                   0.00    0.0000      0.00    0.0000
  142                 -0.00    0.0000      0.00    0.0000
  143                  0.00    0.0000      0.00    0.0000
  144                  0.00    0.0000      0.00    0.0000
  145                 18.00    0.1749      0.09    0.0198
  148                 39.50    0.2462      0.12    0.0176
  149                 39.50    0.2462      0.12    0.0176
  15                   0.00    0.0000      0.00    0.0000
  150                  0.00    0.0000      0.00    0.0000
  151                  0.00    0.0000      0.00    0.0000
  156                  0.00    0.0000      0.00    0.0000
  16                   0.00    0.0000      0.00    0.0000
  160                 19.30    0.3025      0.30    0.0185
  162                  0.00    0.0000      0.00    0.0000
  171                  0.00    0.0000      0.00    0.0000
  172                  0.00    0.0000      0.00    0.0000
  175                  0.00    0.0000      0.00    0.0000
  181                 71.20    1.7749      9.76    0.0137
  183                  0.00    0.0000      0.00    0.0000
  184                 18.00    0.2822      0.27    0.0188
  185                 18.00    0.2822      0.27    0.0188
  19                   0.00    0.0000      0.00    0.0000
  2                   85.70    0.2319      0.07    0.0163
  20                   0.00    0.0000      0.00    0.0000
  21                  18.00    0.6996      2.36    0.0171
  22                  48.00    0.1768      0.05    0.0178
  23                   0.00    0.0000      0.00    0.0000
  24                  18.00    0.2822      0.27    0.0188
  25                  18.00    0.2822      0.27    0.0188
  26                  48.00    0.2396      0.10    0.0174
  27                  18.00    0.6996      2.36    0.0171
  28                  37.30    0.3624      0.31    0.0170
  29                 118.70    0.3212      0.12    0.0153
  3                   37.30    0.5847      0.99    0.0162
  30                  29.00    0.4546      0.63    0.0170
  31                 233.70    0.3816      0.12    0.0141
  32                  48.00    0.2396      0.10    0.0173
  33                 138.70    0.3753      0.16    0.0149
  34                 204.70    0.4251      0.17    0.0142
  36                   0.00    0.0000      0.00    0.0000
  37                   0.00    0.0000      0.00    0.0000
  38                   0.00    0.0000      0.00    0.0000
  4                   48.00    0.2991      0.17    0.0169
  40                   0.00    0.0000      0.00    0.0000
  41                 118.70    0.3212      0.12    0.0153
  42                  20.00    1.2280      8.56    0.0160
  43                 156.70    0.4240      0.19    0.0145
  44                   0.00    0.0000      0.00    0.0000
  45                   0.00    0.0000      0.00    0.0000
  46                  20.00    0.4986      0.98    0.0175
  47                 118.70    0.4371      0.25    0.0149
  48                 118.70    0.4371      0.25    0.0149
  5                   -0.00    0.0000      0.00    0.0000
  50                   0.00    0.0000      0.00    0.0000
  51                 233.70    0.4853      0.21    0.0138
  52                  -0.00    0.0000      0.00    0.0000
  53                   0.00    0.0000      0.00    0.0000
  54                 379.60    0.3495      0.07    0.0136
  56                   0.00    0.0000      0.00    0.0000
  57                  71.20    1.1161      3.19    0.0143
  58                   0.00    0.0000      0.00    0.0000
  59                  71.20    1.1161      3.19    0.0143
  6                    0.00    0.0000      0.00    0.0000
  60                   0.00    0.0000      0.00    0.0000
  61                  60.20    0.5849      0.74    0.0155
  62                  37.30    0.3624      0.31    0.0170
  63                 293.90    0.4799      0.18    0.0136
  64                   0.00    0.0000      0.00    0.0000
  65                   0.00    0.0000      0.00    0.0000
  66                  60.20    0.3006      0.15    0.0166
  67                  37.30    0.3624      0.31    0.0170
  68                   0.00    0.0000      0.00    0.0000
  69                  60.20    0.3752      0.26    0.0161
  7                    0.00    0.0000      0.00    0.0000
  70                  19.30    0.3025      0.30    0.0185
  71                   0.00    0.0000      0.00    0.0000
  72                  -0.00    0.0000      0.00    0.0000
  73                   0.00    0.0000      0.00    0.0000
  74                 379.60    0.3495      0.07    0.0132
  76                   0.00    0.0000      0.00    0.0000
  77                   0.00    0.0000      0.00    0.0000
  78                  70.00    1.0973      3.09    0.0144
  79                   0.00    0.0000      0.00    0.0000
  8                    0.00    0.0000      0.00    0.0000
  80                 118.70    0.3212      0.12    0.0153
  81                   0.00    0.0000      0.00    0.0000
  82                   0.00    0.0000      0.00    0.0000
  83                   0.00    0.0000      0.00    0.0000
  84                   0.00    0.0000      0.00    0.0000
  86                   0.00    0.0000      0.00    0.0000
  87                   0.00    0.0000      0.00    0.0000
  88                   0.00    0.0000      0.00    0.0000
  89                  29.00    1.1271      5.57    0.0156
  9                  450.80    0.4150      0.10    0.0132
  90                  37.30    0.5847      0.99    0.0162
  92                   0.00    0.0000      0.00    0.0000
  93                   0.00    0.0000      0.00    0.0000
  94                   0.00    0.0000      0.00    0.0000
  95                   0.00    0.0000      0.00    0.0000
  96                   0.00    0.0000      0.00    0.0000
  97                  23.00    1.4122     11.02    0.0156
  98                   0.00    0.0000      0.00    0.0000
  99                  23.20    1.4245     11.19    0.0156
  55                  23.00    0.2235      0.13    0.0188
  101                  0.00    0.0000      0.00    0.0000
  108                 23.00    0.2235      0.13    0.0188
  109                  0.00    0.0000      0.00    0.0000
  49                  -0.00    0.0000      0.00    0.0000
  85                 -48.00    0.2991      0.17    0.0169
  91                  -0.00    0.0000      0.00    0.0000
  110                  0.00    0.0000      0.00    0.0000
  111                  0.00    0.0000      0.00    0.0000
  17                  -0.00    0.0000      0.00    0.0000
  18                   0.00    0.0000      0.00    0.0000
  39                   0.00    0.0000      0.00    0.0000
  75                   0.00    0.0000      0.00    0.0000
  114                -28.00    1.0882      5.23    0.0157
   
  Analysis ended Tue Jun  1 20:54:23 2021
