  Page 1                                    Tue Jun  1 20:54:28 2021

  ******************************************************************
  *                           E P A N E T                          *
  *                   Hydraulic and Water Quality                  *
  *                   Analysis for Pipe Networks                   *
  *                         Version 2.00.12                        *
  ******************************************************************
  
  C:\Mario\Violada 
   
      Input Data File ................... /home/borja/Escritorio/nery/epanet-telecontrol/flowpath/tmp.inp
      Number of Junctions................ 146
      Number of Reservoirs............... 1
      Number of Tanks ................... 0
      Number of Pipes ................... 146
      Number of Pumps ................... 0
      Number of Valves .................. 0
      Headloss Formula .................. Darcy-Weisbach
      Hydraulic Timestep ................ 1.00 hrs
      Hydraulic Accuracy ................ 0.001000
      Status Check Frequency ............ 2
      Maximum Trials Checked ............ 10
      Damping Limit Threshold ........... 0.000000
      Maximum Trials .................... 40
      Quality Analysis .................. None
      Specific Gravity .................. 1.00
      Relative Kinematic Viscosity ...... 1.00
      Relative Chemical Diffusivity ..... 1.00
      Demand Multiplier ................. 1.00
      Total Duration .................... 0.00 hrs
      Reporting Criteria:
         Selected Nodes
         No Links
         with Velocity above 3.00 m/s
   
  Analysis begun Tue Jun  1 20:54:28 2021

   
  Node Results:
  ----------------------------------------------
                     Demand      Head  Pressure
  Node                  L/s         m         m
  ----------------------------------------------
  213               0.000000e+00   4.488061e+02   6.590606e+01
  241               0.000000e+00   4.487051e+02   7.546511e+01
  245               0.000000e+00   4.488457e+02   9.872569e+01
  256               0.000000e+00   4.489773e+02   8.276728e+01
  276               0.000000e+00   4.489773e+02   6.688728e+01
  277               0.000000e+00   4.489897e+02   6.872971e+01
  286               0.000000e+00   4.470236e+02   6.519358e+01
  296               0.000000e+00   4.487723e+02   6.761231e+01
   
   
  Link Results:
  --------------------------------------------------------
                       Flow  Velocity  Headloss  F-Factor
  Link                  L/s       m/s    /1000m          
  --------------------------------------------------------
  1                   23.20    0.5783      1.28    0.0170
  10                  35.00    0.3401      0.28    0.0172
  100                  0.00    0.0000      0.00    0.0000
  102                  0.00    0.0000      0.00    0.0000
  103                  0.00    0.0000      0.00    0.0000
  104                 43.00    0.6740      1.28    0.0158
  105                  0.00    0.0000      0.00    0.0000
  106                 33.30    0.8301      2.46    0.0158
  107                 27.00    0.1683      0.06    0.0191
  11                   0.00    0.0000      0.00    0.0000
  112                 70.00    0.2578      0.09    0.0165
  113                 23.20    0.3637      0.42    0.0178
  117                126.50    0.3423      0.13    0.0151
  118                 70.00    0.2578      0.09    0.0165
  119                 93.20    0.3432      0.16    0.0156
  12                   0.00    0.0000      0.00    0.0000
  120                  0.00    0.0000      0.00    0.0000
  122                  0.00    0.0000      0.00    0.0000
  123                  0.00    0.0000      0.00    0.0000
  126                  0.00    0.0000      0.00    0.0000
  127                  0.00    0.0000      0.00    0.0000
  128                 70.00    0.3495      0.20    0.0160
  131                 70.00    0.4362      0.33    0.0156
  132                 70.00    0.3495      0.20    0.0160
  134                  0.00    0.0000      0.00    0.0000
  136                 43.00    0.4178      0.41    0.0165
  137                 -0.00    0.0000      0.00    0.0000
  138                  0.00    0.0000      0.00    0.0000
  139                  0.00    0.0000      0.00    0.0000
  14                   0.00    0.0000      0.00    0.0000
  142                -43.00    2.6403     34.29    0.0139
  143                  0.00    0.0000      0.00    0.0000
  144                  0.00    0.0000      0.00    0.0000
  145                  0.00    0.0000      0.00    0.0000
  148                 27.00    0.1683      0.06    0.0191
  149                 27.00    0.1683      0.06    0.0190
  15                   0.00    0.0000      0.00    0.0000
  150                  0.00    0.0000      0.00    0.0000
  151                  0.00    0.0000      0.00    0.0000
  156                  0.00    0.0000      0.00    0.0000
  16                   0.00    0.0000      0.00    0.0000
  160                  0.00    0.0000      0.00    0.0000
  162                  0.00    0.0000      0.00    0.0000
  171                  0.00    0.0000      0.00    0.0000
  172                  0.00    0.0000      0.00    0.0000
  175                  0.00    0.0000      0.00    0.0000
  181                  0.00    0.0000      0.00    0.0000
  183                  0.00    0.0000      0.00    0.0000
  184                  0.00    0.0000      0.00    0.0000
  185                  0.00    0.0000      0.00    0.0000
  19                   0.00    0.0000      0.00    0.0000
  2                  126.50    0.3423      0.13    0.0151
  20                   0.00    0.0000      0.00    0.0000
  21                  -0.00    0.0000      0.00    0.0000
  22                  53.60    0.1974      0.06    0.0174
  23                   0.00    0.0000      0.00    0.0000
  24                   0.00    0.0000      0.00    0.0000
  25                   0.00    0.0000      0.00    0.0000
  26                  35.00    0.1747      0.06    0.0181
  27                  -0.00    0.0000      0.00    0.0000
  28                   0.00    0.0000      0.00    0.0000
  29                   0.00    0.0000      0.00    0.0000
  3                    0.00    0.0000      0.00    0.0000
  30                   0.00    0.0000      0.00    0.0000
  31                  53.60    0.0875      0.01    0.0190
  32                  35.00    0.1747      0.06    0.0184
  33                   0.00    0.0000      0.00    0.0000
  34                  53.60    0.1113      0.01    0.0185
  36                  33.30    0.5220      0.81    0.0166
  37                   0.00    0.0000      0.00    0.0000
  38                   0.00    0.0000      0.00    0.0000
  4                   35.00    0.2181      0.10    0.0180
  40                   0.00    0.0000      0.00    0.0000
  41                   0.00    0.0000      0.00    0.0000
  42                   0.00    0.0000      0.00    0.0000
  43                   0.00    0.0000      0.00    0.0000
  44                   0.00    0.0000      0.00    0.0000
  45                   0.00    0.0000      0.00    0.0000
  46                   0.00    0.0000      0.00    0.0000
  47                   0.00    0.0000      0.00    0.0000
  48                   0.00    0.0000      0.00    0.0000
  5                    0.00    0.0000      0.00    0.0000
  50                   0.00    0.0000      0.00    0.0000
  51                  53.60    0.1113      0.01    0.0173
  52                  -0.00    0.0000      0.00    0.0000
  53                   0.00    0.0000      0.00    0.0000
  54                 180.10    0.1658      0.02    0.0157
  56                   0.00    0.0000      0.00    0.0000
  57                  38.30    0.6004      1.04    0.0161
  58                  -0.00    0.0000      0.00    0.0000
  59                  38.30    0.6004      1.04    0.0161
  6                    0.00    0.0000      0.00    0.0000
  60                   0.00    0.0000      0.00    0.0000
  61                   0.00    0.0000      0.00    0.0000
  62                   0.00    0.0000      0.00    0.0000
  63                  53.60    0.0875      0.01    0.0190
  64                   0.00    0.0000      0.00    0.0000
  65                   0.00    0.0000      0.00    0.0000
  66                   0.00    0.0000      0.00    0.0000
  67                   0.00    0.0000      0.00    0.0000
  68                  -0.00    0.0000      0.00    0.0000
  69                   0.00    0.0000      0.00    0.0000
  7                   18.60    0.2916      0.28    0.0187
  70                   0.00    0.0000      0.00    0.0000
  71                   0.00    0.0000      0.00    0.0000
  72                   0.00    0.0000      0.00    0.0000
  73                   0.00    0.0000      0.00    0.0000
  74                 180.10    0.1658      0.02    0.0156
  76                   0.00    0.0000      0.00    0.0000
  77                   0.00    0.0000      0.00    0.0000
  78                   0.00    0.0000      0.00    0.0000
  79                   0.00    0.0000      0.00    0.0000
  8                    0.00    0.0000      0.00    0.0000
  80                   0.00    0.0000      0.00    0.0000
  81                   0.00    0.0000      0.00    0.0000
  82                   0.00    0.0000      0.00    0.0000
  83                   0.00    0.0000      0.00    0.0000
  84                  33.30    0.5220      0.81    0.0166
  86                   0.00    0.0000      0.00    0.0000
  87                  -0.00    0.0000      0.00    0.0000
  88                   0.00    0.0000      0.00    0.0000
  89                   0.00    0.0000      0.00    0.0000
  9                  218.40    0.2011      0.03    0.0151
  90                   0.00    0.0000      0.00    0.0000
  92                   0.00    0.0000      0.00    0.0000
  93                   0.00    0.0000      0.00    0.0000
  94                   0.00    0.0000      0.00    0.0000
  95                   0.00    0.0000      0.00    0.0000
  96                  43.00    1.0719      3.90    0.0151
  97                   0.00    0.0000      0.00    0.0000
  98                   0.00    0.0000      0.00    0.0000
  99                  23.20    1.4245     11.19    0.0156
  55                  43.00    0.4178      0.41    0.0165
  101                  0.00    0.0000      0.00    0.0000
  108                 43.00    0.4178      0.41    0.0165
  109                  0.00    0.0000      0.00    0.0000
  49                  -0.00    0.0000      0.00    0.0000
  85                 -35.00    0.2181      0.10    0.0180
  91                   0.00    0.0000      0.00    0.0000
  110                  0.00    0.0000      0.00    0.0000
  111                  0.00    0.0000      0.00    0.0000
  17                  -0.00    0.0000      0.00    0.0000
  18                   0.00    0.0000      0.00    0.0000
  39                   0.00    0.0000      0.00    0.0000
  75                   0.00    0.0000      0.00    0.0000
  114                 -0.00    0.0000      0.00    0.0000
   
  Analysis ended Tue Jun  1 20:54:28 2021
