  Page 1                                    Tue Jun  1 20:54:33 2021

  ******************************************************************
  *                           E P A N E T                          *
  *                   Hydraulic and Water Quality                  *
  *                   Analysis for Pipe Networks                   *
  *                         Version 2.00.12                        *
  ******************************************************************
  
  C:\Mario\Violada 
   
      Input Data File ................... /home/borja/Escritorio/nery/epanet-telecontrol/flowpath/tmp.inp
      Number of Junctions................ 146
      Number of Reservoirs............... 1
      Number of Tanks ................... 0
      Number of Pipes ................... 146
      Number of Pumps ................... 0
      Number of Valves .................. 0
      Headloss Formula .................. Darcy-Weisbach
      Hydraulic Timestep ................ 1.00 hrs
      Hydraulic Accuracy ................ 0.001000
      Status Check Frequency ............ 2
      Maximum Trials Checked ............ 10
      Damping Limit Threshold ........... 0.000000
      Maximum Trials .................... 40
      Quality Analysis .................. None
      Specific Gravity .................. 1.00
      Relative Kinematic Viscosity ...... 1.00
      Relative Chemical Diffusivity ..... 1.00
      Demand Multiplier ................. 1.00
      Total Duration .................... 0.00 hrs
      Reporting Criteria:
         Selected Nodes
         No Links
         with Velocity above 3.00 m/s
   
  Analysis begun Tue Jun  1 20:54:33 2021

   
  Node Results:
  ----------------------------------------------
                     Demand      Head  Pressure
  Node                  L/s         m         m
  ----------------------------------------------
  213               0.000000e+00   4.483476e+02   6.544763e+01
  241               0.000000e+00   4.483172e+02   7.507716e+01
  245               0.000000e+00   4.485122e+02   9.839220e+01
  256               0.000000e+00   4.484451e+02   8.223508e+01
  276               0.000000e+00   4.482289e+02   6.613890e+01
  277               2.600000e+01   4.443347e+02   6.407474e+01
  286               0.000000e+00   4.474357e+02   6.560568e+01
  296               2.600000e+01   4.413792e+02   6.021923e+01
   
   
  Link Results:
  --------------------------------------------------------
                       Flow  Velocity  Headloss  F-Factor
  Link                  L/s       m/s    /1000m          
  --------------------------------------------------------
  1                   17.50    0.4362      0.77    0.0180
  10                  20.00    0.1943      0.10    0.0194
  100                  0.00    0.0000      0.00    0.0000
  102                 47.50    0.7446      1.53    0.0155
  103                 26.00    0.6481      1.57    0.0166
  104                 19.30    0.3025      0.30    0.0185
  105                 47.00    1.1716      4.59    0.0148
  106                 26.80    0.6681      1.66    0.0165
  107                 74.50    0.4643      0.38    0.0155
  11                  20.00    0.4986      0.98    0.0175
  112                140.80    0.5185      0.34    0.0144
  113                 17.50    0.2743      0.25    0.0189
  117                203.10    0.5495      0.31    0.0139
  118                140.80    0.5185      0.34    0.0144
  119                158.30    0.5830      0.42    0.0141
  12                   0.00    0.0000      0.00    0.0000
  120                  0.00    0.0000      0.00    0.0000
  122                  0.00    0.0000      0.00    0.0000
  123                  0.00    0.0000      0.00    0.0000
  126                  0.00    0.0000      0.00    0.0000
  127                  0.00    0.0000      0.00    0.0000
  128                140.80    0.7030      0.70    0.0140
  131                140.80    0.8775      1.20    0.0138
  132                140.80    0.7030      0.70    0.0140
  134                  0.00    0.0000      0.00    0.0000
  136                 66.30    0.6442      0.89    0.0152
  137                 23.00    1.4122     11.02    0.0156
  138                  0.00    0.0000      0.00    0.0000
  139                 -0.00    0.0000      0.00    0.0000
  14                   0.00    0.0000      0.00    0.0000
  142                  0.00    0.0000      0.00    0.0000
  143                 -0.00    0.0000      0.00    0.0000
  144                 26.00    1.0105      4.58    0.0159
  145                  0.00    0.0000      0.00    0.0000
  148                 74.50    0.4643      0.38    0.0155
  149                 74.50    0.4643      0.38    0.0155
  15                   0.00    0.0000      0.00    0.0000
  150                  0.00    0.0000      0.00    0.0000
  151                 -0.00    0.0000      0.00    0.0000
  156                  0.00    0.0000      0.00    0.0000
  16                   0.00    0.0000      0.00    0.0000
  160                 66.30    1.0393      2.80    0.0145
  162                 21.00    0.3292      0.35    0.0182
  171                 26.00    1.0105      4.58    0.0159
  172                 26.00    0.4076      0.52    0.0174
  175                  0.00    0.0000      0.00    0.0000
  181                  0.00    0.0000      0.00    0.0000
  183                  0.00    0.0000      0.00    0.0000
  184                  0.00    0.0000      0.00    0.0000
  185                  0.00    0.0000      0.00    0.0000
  19                   0.00    0.0000      0.00    0.0000
  2                  203.10    0.5495      0.31    0.0139
  20                  -0.00    0.0000      0.00    0.0000
  21                  18.00    0.6996      2.36    0.0171
  22                  38.00    0.1399      0.03    0.0187
  23                   0.00    0.0000      0.00    0.0000
  24                  18.00    0.2822      0.27    0.0188
  25                  18.00    0.2822      0.27    0.0188
  26                  38.00    0.1897      0.07    0.0181
  27                  18.00    0.6996      2.36    0.0171
  28                  94.70    0.9201      1.69    0.0142
  29                 142.60    0.3858      0.16    0.0148
  3                   66.30    1.0393      2.80    0.0145
  30                   0.00    0.0000      0.00    0.0000
  31                 238.60    0.3896      0.12    0.0141
  32                  38.00    0.1897      0.07    0.0181
  33                 182.60    0.4940      0.26    0.0141
  34                 238.60    0.4955      0.22    0.0138
  36                  26.80    0.4201      0.55    0.0173
  37                   0.00    0.0000      0.00    0.0000
  38                  -0.00    0.0000      0.00    0.0000
  4                   38.00    0.2368      0.11    0.0177
  40                   0.00    0.0000      0.00    0.0000
  41                 142.60    0.3858      0.16    0.0148
  42                   0.00    0.0000      0.00    0.0000
  43                 200.60    0.5427      0.30    0.0139
  44                  41.80    1.0420      3.71    0.0152
  45                  41.80    1.6245     10.81    0.0146
  46                  40.00    0.9971      3.43    0.0153
  47                 100.80    0.3712      0.18    0.0154
  48                 100.80    0.3712      0.18    0.0153
  5                    0.00    0.0000      0.00    0.0000
  50                   0.00    0.0000      0.00    0.0000
  51                 238.60    0.4955      0.22    0.0137
  52                   0.00    0.0000      0.00    0.0000
  53                  30.80    0.1538      0.05    0.0189
  54                 557.50    0.5133      0.15    0.0127
  56                   0.00    0.0000      0.00    0.0000
  57                   0.00    0.0000      0.00    0.0000
  58                   0.00    0.0000      0.00    0.0000
  59                   0.00    0.0000      0.00    0.0000
  6                    0.00    0.0000      0.00    0.0000
  60                   0.00    0.0000      0.00    0.0000
  61                  94.70    0.9201      1.69    0.0142
  62                  66.30    0.6442      0.89    0.0152
  63                 333.30    0.5443      0.23    0.0133
  64                  28.40    1.7438     16.14    0.0150
  65                   0.00    0.0000      0.00    0.0000
  66                  94.70    0.4728      0.34    0.0151
  67                  66.30    0.6442      0.89    0.0152
  68                  26.00    1.5965     13.75    0.0153
  69                  94.70    0.5902      0.58    0.0148
  7                   -0.00    0.0000      0.00    0.0000
  70                  45.30    0.7101      1.41    0.0156
  71                  26.80    1.6456     14.53    0.0152
  72                  -0.00    0.0000      0.00    0.0000
  73                   0.00    0.0000      0.00    0.0000
  74                 536.40    0.4938      0.14    0.0132
  76                   0.00    0.0000      0.00    0.0000
  77                   0.00    0.0000      0.00    0.0000
  78                  70.00    1.0973      3.09    0.0144
  79                  -0.00    0.0000      0.00    0.0000
  8                    0.00    0.0000      0.00    0.0000
  80                 100.80    0.2727      0.09    0.0158
  81                  -0.00    0.0000      0.00    0.0000
  82                  30.80    0.1919      0.08    0.0186
  83                  -0.00    0.0000      0.00    0.0000
  84                  44.80    0.7023      1.38    0.0156
  86                   0.00    0.0000      0.00    0.0000
  87                   0.00    0.0000      0.00    0.0000
  88                  -0.00    0.0000      0.00    0.0000
  89                   0.00    0.0000      0.00    0.0000
  9                  557.50    0.5133      0.15    0.0127
  90                  66.30    1.0393      2.80    0.0145
  92                   0.00    0.0000      0.00    0.0000
  93                  26.00    1.5965     13.75    0.0153
  94                  30.80    0.1919      0.08    0.0184
  95                   0.00    0.0000      0.00    0.0000
  96                   0.00    0.0000      0.00    0.0000
  97                   0.00    0.0000      0.00    0.0000
  98                   0.00    0.0000      0.00    0.0000
  99                   0.00    0.0000      0.00    0.0000
  55                  66.30    0.6442      0.89    0.0152
  101                  0.00    0.0000      0.00    0.0000
  108                 66.30    0.6442      0.89    0.0152
  109                  0.00    0.0000      0.00    0.0000
  49                  -0.00    0.0000      0.00    0.0000
  85                 -20.00    0.1246      0.04    0.0203
  91                   0.00    0.0000      0.00    0.0000
  110                  0.00    0.0000      0.00    0.0000
  111                  0.00    0.0000      0.00    0.0000
  17                  -0.00    0.0000      0.00    0.0000
  18                   0.00    0.0000      0.00    0.0000
  39                   0.00    0.0000      0.00    0.0000
  75                   0.00    0.0000      0.00    0.0000
  114                 -0.00    0.0000      0.00    0.0000
   
  Analysis ended Tue Jun  1 20:54:33 2021
