  Page 1                                    Tue Jun  1 20:54:35 2021

  ******************************************************************
  *                           E P A N E T                          *
  *                   Hydraulic and Water Quality                  *
  *                   Analysis for Pipe Networks                   *
  *                         Version 2.00.12                        *
  ******************************************************************
  
  C:\Mario\Violada 
   
      Input Data File ................... /home/borja/Escritorio/nery/epanet-telecontrol/flowpath/tmp.inp
      Number of Junctions................ 146
      Number of Reservoirs............... 1
      Number of Tanks ................... 0
      Number of Pipes ................... 146
      Number of Pumps ................... 0
      Number of Valves .................. 0
      Headloss Formula .................. Darcy-Weisbach
      Hydraulic Timestep ................ 1.00 hrs
      Hydraulic Accuracy ................ 0.001000
      Status Check Frequency ............ 2
      Maximum Trials Checked ............ 10
      Damping Limit Threshold ........... 0.000000
      Maximum Trials .................... 40
      Quality Analysis .................. None
      Specific Gravity .................. 1.00
      Relative Kinematic Viscosity ...... 1.00
      Relative Chemical Diffusivity ..... 1.00
      Demand Multiplier ................. 1.00
      Total Duration .................... 0.00 hrs
      Reporting Criteria:
         Selected Nodes
         No Links
         with Velocity above 3.00 m/s
   
  Analysis begun Tue Jun  1 20:54:35 2021

   
  Node Results:
  ----------------------------------------------
                     Demand      Head  Pressure
  Node                  L/s         m         m
  ----------------------------------------------
  213               0.000000e+00   4.479361e+02   6.503608e+01
  241               0.000000e+00   4.471480e+02   7.390804e+01
  245               0.000000e+00   4.471480e+02   9.702804e+01
  256               0.000000e+00   4.474493e+02   8.123934e+01
  276               0.000000e+00   4.469576e+02   6.486761e+01
  277               2.600000e+01   4.448136e+02   6.455356e+01
  286               0.000000e+00   4.467369e+02   6.490690e+01
  296               2.600000e+01   4.409335e+02   5.977349e+01
   
   
  Link Results:
  --------------------------------------------------------
                       Flow  Velocity  Headloss  F-Factor
  Link                  L/s       m/s    /1000m          
  --------------------------------------------------------
  1                   17.50    0.4362      0.77    0.0180
  10                   0.00    0.0000      0.00    0.0000
  100                  0.00    0.0000      0.00    0.0000
  102                 47.50    0.7446      1.53    0.0155
  103                 26.00    0.6481      1.57    0.0166
  104                 19.30    0.3025      0.30    0.0185
  105                 24.00    0.5983      1.36    0.0169
  106                 33.30    0.8301      2.46    0.0158
  107                101.50    0.6326      0.66    0.0146
  11                   0.00    0.0000      0.00    0.0000
  112                185.80    0.6842      0.56    0.0137
  113                 17.50    0.2743      0.25    0.0189
  117                236.60    0.6401      0.41    0.0135
  118                185.80    0.6842      0.56    0.0137
  119                203.30    0.7487      0.66    0.0135
  12                  -0.00    0.0000      0.00    0.0000
  120                  0.00    0.0000      0.00    0.0000
  122                  0.00    0.0000      0.00    0.0000
  123                  0.00    0.0000      0.00    0.0000
  126                  0.00    0.0000      0.00    0.0000
  127                  0.00    0.0000      0.00    0.0000
  128                185.80    0.9276      1.16    0.0133
  131                167.80    1.0457      1.64    0.0133
  132                167.80    0.8378      0.96    0.0136
  134                  0.00    0.0000      0.00    0.0000
  136                 43.30    0.4207      0.41    0.0165
  137                  0.00    0.0000      0.00    0.0000
  138                 23.00    0.5733      1.26    0.0170
  139                  0.00    0.0000      0.00    0.0000
  14                  33.00    0.5173      0.79    0.0166
  142                  0.00    0.0000      0.00    0.0000
  143                 20.00    0.7773      2.85    0.0168
  144                 26.00    1.0105      4.58    0.0159
  145                 18.00    0.1749      0.09    0.0198
  148                 65.50    0.4082      0.30    0.0159
  149                 83.50    0.5204      0.46    0.0151
  15                   0.00    0.0000      0.00    0.0000
  150                  0.00    0.0000      0.00    0.0000
  151                  0.00    0.0000      0.00    0.0000
  156                  0.00    0.0000      0.00    0.0000
  16                   0.00    0.0000      0.00    0.0000
  160                 47.00    0.7367      1.50    0.0155
  162                 21.00    0.3292      0.35    0.0182
  171                 26.00    1.0105      4.58    0.0159
  172                 26.00    0.4076      0.52    0.0175
  175                  0.00    0.0000      0.00    0.0000
  181                 71.20    1.7749      9.76    0.0137
  183                  0.00    0.0000      0.00    0.0000
  184                  0.00    0.0000      0.00    0.0000
  185                 18.00    0.2822      0.27    0.0188
  19                  50.00    1.9432     14.97    0.0141
  2                  236.60    0.6401      0.41    0.0135
  20                  60.00    1.4957      7.15    0.0142
  21                  18.00    0.6996      2.36    0.0171
  22                 193.00    0.7107      0.60    0.0136
  23                   0.00    0.0000      0.00    0.0000
  24                  18.00    0.2822      0.27    0.0188
  25                  18.00    0.2822      0.27    0.0188
  26                 100.00    0.4993      0.38    0.0149
  27                  18.00    0.6996      2.36    0.0171
  28                  96.50    0.9376      1.75    0.0141
  29                 234.50    0.6345      0.40    0.0135
  3                   47.00    0.7367      1.50    0.0155
  30                  70.00    1.0973      3.09    0.0144
  31                 515.50    0.8418      0.50    0.0123
  32                 133.00    0.6640      0.63    0.0142
  33                 234.50    0.6345      0.40    0.0135
  34                 445.50    0.9252      0.69    0.0123
  36                  33.30    0.5220      0.81    0.0166
  37                   0.00    0.0000      0.00    0.0000
  38                   0.00    0.0000      0.00    0.0000
  4                    0.00    0.0000      0.00    0.0000
  40                   0.00    0.0000      0.00    0.0000
  41                 234.50    0.6345      0.40    0.0135
  42                   0.00    0.0000      0.00    0.0000
  43                 252.50    0.6832      0.46    0.0133
  44                  41.80    1.0420      3.71    0.0152
  45                  41.80    1.6245     10.81    0.0146
  46                   0.00    0.0000      0.00    0.0000
  47                 144.70    0.5329      0.35    0.0143
  48                 144.70    0.5329      0.35    0.0143
  5                    0.00    0.0000      0.00    0.0000
  50                   0.00    0.0000      0.00    0.0000
  51                 515.50    1.0706      0.90    0.0120
  52                  -0.00    0.0000      0.00    0.0000
  53                  26.00    0.1298      0.03    0.0196
  54                 870.60    0.8015      0.33    0.0118
  56                  70.00    1.0973      3.09    0.0144
  57                 109.50    1.7165      6.98    0.0132
  58                   0.00    0.0000      0.00    0.0000
  59                 109.50    1.7165      6.98    0.0132
  6                  100.00    0.6232      0.64    0.0146
  60                   0.00    0.0000      0.00    0.0000
  61                  96.50    0.9376      1.75    0.0141
  62                  68.10    0.6617      0.93    0.0151
  63                 634.00    1.0353      0.73    0.0119
  64                  28.40    1.7438     16.14    0.0150
  65                  18.00    1.1052      7.08    0.0164
  66                 118.50    0.5916      0.51    0.0145
  67                  68.10    0.6617      0.93    0.0151
  68                  26.00    1.5965     13.75    0.0153
  69                 118.50    0.7385      0.87    0.0142
  7                   60.00    0.9405      2.34    0.0148
  70                  26.00    0.4076      0.52    0.0174
  71                   0.00    0.0000      0.00    0.0000
  72                   0.00    0.0000      0.00    0.0000
  73                   0.00    0.0000      0.00    0.0000
  74                 870.60    0.8015      0.33    0.0117
  76                  48.00    0.4664      0.49    0.0161
  77                   0.00    0.0000      0.00    0.0000
  78                  70.00    1.0973      3.09    0.0144
  79                   0.00    0.0000      0.00    0.0000
  8                    0.00    0.0000      0.00    0.0000
  80                 192.70    0.5214      0.28    0.0140
  81                  18.00    0.4487      0.81    0.0179
  82                   0.00    0.0000      0.00    0.0000
  83                   0.00    0.0000      0.00    0.0000
  84                  33.30    0.5220      0.81    0.0166
  86                  21.10    1.2956      9.43    0.0159
  87                  22.00    1.3508     10.17    0.0157
  88                   0.00    0.0000      0.00    0.0000
  89                   0.00    0.0000      0.00    0.0000
  9                  980.10    0.9023      0.41    0.0116
  90                  47.00    0.7367      1.50    0.0155
  92                  26.00    0.1620      0.06    0.0195
  93                  26.00    1.5965     13.75    0.0153
  94                   0.00    0.0000      0.00    0.0000
  95                   0.00    0.0000      0.00    0.0000
  96                   0.00    0.0000      0.00    0.0000
  97                  23.00    1.4122     11.02    0.0156
  98                   0.00    0.0000      0.00    0.0000
  99                  -0.00    0.0000      0.00    0.0000
  55                  66.30    0.6442      0.89    0.0152
  101                  0.00    0.0000      0.00    0.0000
  108                 66.30    0.6442      0.89    0.0152
  109                  0.00    0.0000      0.00    0.0000
  49                 -48.00    0.4664      0.49    0.0162
  85                  -0.00    0.0000      0.00    0.0000
  91                  -0.00    0.0000      0.00    0.0000
  110                 -0.00    0.0000      0.00    0.0000
  111                  0.00    0.0000      0.00    0.0000
  17                   0.00    0.0000      0.00    0.0000
  18                   0.00    0.0000      0.00    0.0000
  39                   0.00    0.0000      0.00    0.0000
  75                   0.00    0.0000      0.00    0.0000
  114                  0.00    0.0000      0.00    0.0000
   
  Analysis ended Tue Jun  1 20:54:35 2021
