  Page 1                                    Tue Jun  1 20:54:36 2021

  ******************************************************************
  *                           E P A N E T                          *
  *                   Hydraulic and Water Quality                  *
  *                   Analysis for Pipe Networks                   *
  *                         Version 2.00.12                        *
  ******************************************************************
  
  C:\Mario\Violada 
   
      Input Data File ................... /home/borja/Escritorio/nery/epanet-telecontrol/flowpath/tmp.inp
      Number of Junctions................ 146
      Number of Reservoirs............... 1
      Number of Tanks ................... 0
      Number of Pipes ................... 146
      Number of Pumps ................... 0
      Number of Valves .................. 0
      Headloss Formula .................. Darcy-Weisbach
      Hydraulic Timestep ................ 1.00 hrs
      Hydraulic Accuracy ................ 0.001000
      Status Check Frequency ............ 2
      Maximum Trials Checked ............ 10
      Damping Limit Threshold ........... 0.000000
      Maximum Trials .................... 40
      Quality Analysis .................. None
      Specific Gravity .................. 1.00
      Relative Kinematic Viscosity ...... 1.00
      Relative Chemical Diffusivity ..... 1.00
      Demand Multiplier ................. 1.00
      Total Duration .................... 0.00 hrs
      Reporting Criteria:
         Selected Nodes
         No Links
         with Velocity above 3.00 m/s
   
  Analysis begun Tue Jun  1 20:54:36 2021

   
  Node Results:
  ----------------------------------------------
                     Demand      Head  Pressure
  Node                  L/s         m         m
  ----------------------------------------------
  213               0.000000e+00   4.465624e+02   6.366240e+01
  241               2.800000e+01   4.391054e+02   6.586536e+01
  245               0.000000e+00   4.405013e+02   9.038126e+01
  256               0.000000e+00   4.462924e+02   8.008239e+01
  276               0.000000e+00   4.457516e+02   6.366154e+01
  277               2.600000e+01   4.432142e+02   6.295417e+01
  286               0.000000e+00   4.414713e+02   5.964125e+01
  296               2.600000e+01   4.393442e+02   5.818423e+01
   
   
  Link Results:
  --------------------------------------------------------
                       Flow  Velocity  Headloss  F-Factor
  Link                  L/s       m/s    /1000m          
  --------------------------------------------------------
  1                    0.00    0.0000      0.00    0.0000
  10                 102.00    0.9910      1.93    0.0140
  100                  0.00    0.0000      0.00    0.0000
  102                 47.50    0.7446      1.53    0.0155
  103                 26.00    0.6481      1.57    0.0166
  104                  0.00    0.0000      0.00    0.0000
  105                 23.00    0.5733      1.26    0.0170
  106                 60.10    1.4982      7.17    0.0142
  107                168.10    1.0476      1.65    0.0133
  11                  28.00    0.6980      1.80    0.0164
  112                278.10    1.0241      1.16    0.0127
  113                 30.00    0.4703      0.67    0.0169
  117                409.20    1.1071      1.11    0.0122
  118                278.10    1.0241      1.16    0.0127
  119                308.10    1.1346      1.40    0.0125
  12                   0.00    0.0000      0.00    0.0000
  120                 18.00    0.2822      0.27    0.0188
  122                  0.00    0.0000      0.00    0.0000
  123                 39.60    0.6207      1.10    0.0160
  126                 18.00    0.4487      0.81    0.0179
  127                 18.00    0.4487      0.81    0.0179
  128                250.10    1.2486      1.99    0.0126
  131                214.10    1.3343      2.56    0.0128
  132                232.10    1.1588      1.74    0.0128
  134                 23.00    1.4122     11.01    0.0156
  136                 23.00    0.2235      0.13    0.0188
  137                 23.00    1.4122     11.02    0.0156
  138                 23.00    0.5733      1.26    0.0170
  139                  0.00    0.0000      0.00    0.0000
  14                  29.00    0.4546      0.63    0.0170
  142                 -0.00    0.0000      0.00    0.0000
  143                  0.00    0.0000      0.00    0.0000
  144                 26.00    1.0105      4.58    0.0159
  145                 57.60    0.5596      0.69    0.0156
  148                132.10    0.8233      1.06    0.0139
  149                150.10    0.9354      1.34    0.0136
  15                  86.00    1.3481      4.49    0.0138
  150                 21.60    0.3386      0.37    0.0181
  151                 21.60    1.3263      9.83    0.0158
  156                  0.00    0.0000      0.00    0.0000
  16                  29.00    0.7229      1.92    0.0163
  160                 47.00    0.7367      1.50    0.0155
  162                 21.00    0.3292      0.35    0.0182
  171                 26.00    1.0105      4.58    0.0159
  172                 26.00    0.4076      0.52    0.0175
  175                  0.00    0.0000      0.00    0.0000
  181                 71.20    1.7749      9.76    0.0137
  183                  0.00    0.0000      0.00    0.0000
  184                 18.00    0.2822      0.27    0.0188
  185                 18.00    0.2822      0.27    0.0188
  19                  50.00    1.9432     14.97    0.0141
  2                  409.20    1.1071      1.11    0.0122
  20                  60.00    1.4957      7.15    0.0142
  21                  18.00    0.6996      2.36    0.0171
  22                 395.60    1.4568      2.21    0.0120
  23                   0.00    0.0000      0.00    0.0000
  24                  43.00    0.6740      1.28    0.0158
  25                  43.00    0.6740      1.28    0.0158
  26                 288.00    1.4379      2.57    0.0123
  27                  18.00    0.6996      2.36    0.0171
  28                 114.50    1.1125      2.39    0.0137
  29                 217.30    0.5879      0.35    0.0137
  3                   65.00    1.0189      2.70    0.0146
  30                  79.00    1.2384      3.85    0.0140
  31                 734.90    1.2001      0.96    0.0116
  32                 317.00    1.5827      3.07    0.0121
  33                 217.30    0.5879      0.35    0.0137
  34                 655.90    1.3621      1.40    0.0116
  36                  83.10    1.3026      4.22    0.0139
  37                   0.00    0.0000      0.00    0.0000
  38                   0.00    0.0000      0.00    0.0000
  4                  188.00    1.1716      2.02    0.0130
  40                   0.00    0.0000      0.00    0.0000
  41                 217.30    0.5879      0.35    0.0137
  42                   0.00    0.0000      0.00    0.0000
  43                 260.30    0.7043      0.49    0.0132
  44                  41.80    1.0420      3.71    0.0152
  45                  41.80    1.6245     10.81    0.0146
  46                   0.00    0.0000      0.00    0.0000
  47                 175.50    0.6463      0.50    0.0138
  48                 175.50    0.6463      0.50    0.0138
  5                    0.00    0.0000      0.00    0.0000
  50                   0.00    0.0000      0.00    0.0000
  51                 734.90    1.5262      1.72    0.0114
  52                   0.00    0.0000      0.00    0.0000
  53                  56.80    0.2836      0.14    0.0167
  54                1304.62    1.2011      0.69    0.0110
  56                  50.00    0.7838      1.68    0.0153
  57                 109.50    1.7165      6.98    0.0132
  58                   0.00    0.0000      0.00    0.0000
  59                 109.50    1.7165      6.98    0.0132
  6                  100.00    0.6232      0.64    0.0146
  60                   0.00    0.0000      0.00    0.0000
  61                 137.40    1.3350      3.33    0.0133
  62                  86.10    0.8366      1.42    0.0144
  63                 895.42    1.4622      1.38    0.0112
  64                  28.40    1.7438     16.14    0.0150
  65                   0.00    0.0000      0.00    0.0000
  66                 160.52    0.8014      0.89    0.0137
  67                  86.10    0.8366      1.42    0.0144
  68                  26.00    1.5965     13.75    0.0153
  69                 137.40    0.8563      1.14    0.0138
  7                   78.60    1.2321      3.82    0.0141
  70                  26.00    0.4076      0.52    0.0174
  71                  26.80    1.6456     14.53    0.0152
  72                   0.00    0.0000      0.00    0.0000
  73                   0.00    0.0000      0.00    0.0000
  74                1304.62    1.2011      0.69    0.0110
  76                   0.00    0.0000      0.00    0.0000
  77                  -0.00    0.0000      0.00    0.0000
  78                  70.00    1.0973      3.09    0.0144
  79                   0.00    0.0000      0.00    0.0000
  8                    0.00    0.0000      0.00    0.0000
  80                 175.50    0.4748      0.24    0.0142
  81                   0.00    0.0000      0.00    0.0000
  82                  30.80    0.1919      0.08    0.0184
  83                  -0.00    0.0000      0.00    0.0000
  84                 101.10    1.5848      6.03    0.0134
  86                  21.10    1.2956      9.43    0.0159
  87                   0.00    0.0000      0.00    0.0000
  88                  -0.00    0.0000      0.00    0.0000
  89                  29.00    1.1271      5.57    0.0156
  9                 1414.12    1.3019      0.80    0.0109
  90                  65.00    1.0189      2.70    0.0146
  92                  26.00    0.1620      0.06    0.0189
  93                  26.00    1.5965     13.75    0.0153
  94                  30.80    0.1919      0.08    0.0186
  95                  18.00    0.6996      2.36    0.0171
  96                   0.00    0.0000      0.00    0.0000
  97                  23.00    1.4122     11.02    0.0156
  98                   0.00    0.0000      0.00    0.0000
  99                   0.00    0.0000      0.00    0.0000
  55                  46.00    0.4469      0.46    0.0163
  101                  0.00    0.0000      0.00    0.0000
  108                 46.00    0.4469      0.46    0.0163
  109                  0.00    0.0000      0.00    0.0000
  49                  -0.00    0.0000      0.00    0.0000
  85                -188.00    1.1716      2.02    0.0130
  91                 -39.00    0.6113      1.07    0.0161
  110                  0.00    0.0000      0.00    0.0000
  111                  0.00    0.0000      0.00    0.0000
  17                  -0.00    0.0000      0.00    0.0000
  18                  18.00    1.1052      7.08    0.0164
  39                   0.00    0.0000      0.00    0.0000
  75                   0.00    0.0000      0.00    0.0000
  114                -28.00    1.0882      5.23    0.0157
   
  Analysis ended Tue Jun  1 20:54:36 2021
