  Page 1                                    Tue Jun  1 20:54:37 2021

  ******************************************************************
  *                           E P A N E T                          *
  *                   Hydraulic and Water Quality                  *
  *                   Analysis for Pipe Networks                   *
  *                         Version 2.00.12                        *
  ******************************************************************
  
  C:\Mario\Violada 
   
      Input Data File ................... /home/borja/Escritorio/nery/epanet-telecontrol/flowpath/tmp.inp
      Number of Junctions................ 146
      Number of Reservoirs............... 1
      Number of Tanks ................... 0
      Number of Pipes ................... 146
      Number of Pumps ................... 0
      Number of Valves .................. 0
      Headloss Formula .................. Darcy-Weisbach
      Hydraulic Timestep ................ 1.00 hrs
      Hydraulic Accuracy ................ 0.001000
      Status Check Frequency ............ 2
      Maximum Trials Checked ............ 10
      Damping Limit Threshold ........... 0.000000
      Maximum Trials .................... 40
      Quality Analysis .................. None
      Specific Gravity .................. 1.00
      Relative Kinematic Viscosity ...... 1.00
      Relative Chemical Diffusivity ..... 1.00
      Demand Multiplier ................. 1.00
      Total Duration .................... 0.00 hrs
      Reporting Criteria:
         Selected Nodes
         No Links
         with Velocity above 3.00 m/s
   
  Analysis begun Tue Jun  1 20:54:37 2021

   
  Node Results:
  ----------------------------------------------
                     Demand      Head  Pressure
  Node                  L/s         m         m
  ----------------------------------------------
  213               0.000000e+00   4.482952e+02   6.539524e+01
  241               0.000000e+00   4.486771e+02   7.543710e+01
  245               0.000000e+00   4.486771e+02   9.855710e+01
  256               0.000000e+00   4.486485e+02   8.243852e+01
  276               0.000000e+00   4.485683e+02   6.647830e+01
  277               0.000000e+00   4.485697e+02   6.830968e+01
  286               0.000000e+00   4.485737e+02   6.674370e+01
  296               0.000000e+00   4.468631e+02   6.570307e+01
   
   
  Link Results:
  --------------------------------------------------------
                       Flow  Velocity  Headloss  F-Factor
  Link                  L/s       m/s    /1000m          
  --------------------------------------------------------
  1                    0.00    0.0000      0.00    0.0000
  10                   0.00    0.0000      0.00    0.0000
  100                  0.00    0.0000      0.00    0.0000
  102                 45.50    0.7132      1.42    0.0156
  103                 24.00    0.5983      1.36    0.0169
  104                 19.30    0.3025      0.30    0.0185
  105                 23.00    0.5733      1.26    0.0170
  106                  0.00    0.0000      0.00    0.0000
  107                 85.10    0.5303      0.48    0.0151
  11                   0.00    0.0000      0.00    0.0000
  112                150.40    0.5539      0.38    0.0142
  113                 30.00    0.4703      0.67    0.0169
  117                203.40    0.5503      0.31    0.0139
  118                150.40    0.5539      0.38    0.0142
  119                180.40    0.6643      0.53    0.0137
  12                   0.00    0.0000      0.00    0.0000
  120                  0.00    0.0000      0.00    0.0000
  122                  0.00    0.0000      0.00    0.0000
  123                 21.60    0.3386      0.37    0.0181
  126                  0.00    0.0000      0.00    0.0000
  127                  0.00    0.0000      0.00    0.0000
  128                150.40    0.7509      0.79    0.0138
  131                150.40    0.9373      1.34    0.0135
  132                150.40    0.7509      0.79    0.0138
  134                 23.00    1.4122     11.01    0.0156
  136                 42.30    0.4110      0.39    0.0166
  137                 23.00    1.4122     11.02    0.0156
  138                 23.00    0.5733      1.26    0.0170
  139                  0.00    0.0000      0.00    0.0000
  14                   0.00    0.0000      0.00    0.0000
  142                 -0.00    0.0000      0.00    0.0000
  143                  0.00    0.0000      0.00    0.0000
  144                  0.00    0.0000      0.00    0.0000
  145                 39.60    0.3848      0.35    0.0168
  148                 85.10    0.5303      0.48    0.0151
  149                 85.10    0.5303      0.48    0.0151
  15                   0.00    0.0000      0.00    0.0000
  150                 21.60    0.3386      0.37    0.0181
  151                 21.60    1.3263      9.83    0.0158
  156                  0.00    0.0000      0.00    0.0000
  16                   0.00    0.0000      0.00    0.0000
  160                  0.00    0.0000      0.00    0.0000
  162                  0.00    0.0000      0.00    0.0000
  171                  0.00    0.0000      0.00    0.0000
  172                  0.00    0.0000      0.00    0.0000
  175                  0.00    0.0000      0.00    0.0000
  181                 71.20    1.7749      9.76    0.0137
  183                  0.00    0.0000      0.00    0.0000
  184                 18.00    0.2822      0.27    0.0188
  185                 18.00    0.2822      0.27    0.0188
  19                  50.00    1.9432     14.97    0.0141
  2                  203.40    0.5503      0.31    0.0138
  20                  60.00    1.4957      7.15    0.0142
  21                  18.00    0.6996      2.36    0.0171
  22                  60.00    0.2210      0.07    0.0170
  23                   0.00    0.0000      0.00    0.0000
  24                  43.00    0.6740      1.28    0.0158
  25                  43.00    0.6740      1.28    0.0158
  26                   0.00    0.0000      0.00    0.0000
  27                  18.00    0.6996      2.36    0.0171
  28                  18.00    0.1749      0.09    0.0199
  29                  69.70    0.1886      0.04    0.0170
  3                   18.00    0.2822      0.27    0.0188
  30                  50.00    0.7838      1.68    0.0153
  31                 222.70    0.3637      0.11    0.0143
  32                   0.00    0.0000      0.00    0.0000
  33                  69.70    0.1886      0.04    0.0170
  34                 172.70    0.3587      0.12    0.0146
  36                  23.00    0.3605      0.42    0.0179
  37                   0.00    0.0000      0.00    0.0000
  38                   0.00    0.0000      0.00    0.0000
  4                    0.00    0.0000      0.00    0.0000
  40                   0.00    0.0000      0.00    0.0000
  41                  69.70    0.1886      0.04    0.0170
  42                   0.00    0.0000      0.00    0.0000
  43                 112.70    0.3049      0.11    0.0155
  44                   0.00    0.0000      0.00    0.0000
  45                   0.00    0.0000      0.00    0.0000
  46                   0.00    0.0000      0.00    0.0000
  47                  69.70    0.2567      0.09    0.0165
  48                  48.70    0.1793      0.05    0.0177
  5                   -0.00    0.0000      0.00    0.0000
  50                   0.00    0.0000      0.00    0.0000
  51                 222.70    0.4625      0.19    0.0139
  52                  -0.00    0.0000      0.00    0.0000
  53                   0.00    0.0000      0.00    0.0000
  54                 512.12    0.4715      0.12    0.0129
  56                  50.00    0.7838      1.68    0.0153
  57                 109.50    1.7165      6.98    0.0132
  58                   0.00    0.0000      0.00    0.0000
  59                 109.50    1.7165      6.98    0.0132
  6                    0.00    0.0000      0.00    0.0000
  60                   0.00    0.0000      0.00    0.0000
  61                  40.90    0.3974      0.37    0.0167
  62                  18.00    0.1749      0.09    0.0198
  63                 308.72    0.5041      0.20    0.0134
  64                  -0.00    0.0000      0.00    0.0000
  65                   0.00    0.0000      0.00    0.0000
  66                  86.02    0.4295      0.29    0.0155
  67                  18.00    0.1749      0.09    0.0198
  68                  -0.00    0.0000      0.00    0.0000
  69                  62.90    0.3920      0.28    0.0160
  7                   60.00    0.9405      2.34    0.0148
  70                   0.00    0.0000      0.00    0.0000
  71                   0.00    0.0000      0.00    0.0000
  72                  -0.00    0.0000      0.00    0.0000
  73                   0.00    0.0000      0.00    0.0000
  74                 512.12    0.4715      0.13    0.0130
  76                   0.00    0.0000      0.00    0.0000
  77                   0.00    0.0000      0.00    0.0000
  78                   0.00    0.0000      0.00    0.0000
  79                  21.00    1.2894      9.35    0.0159
  8                    0.00    0.0000      0.00    0.0000
  80                  69.70    0.1886      0.04    0.0170
  81                   0.00    0.0000      0.00    0.0000
  82                   0.00    0.0000      0.00    0.0000
  83                   0.00    0.0000      0.00    0.0000
  84                  23.00    0.3605      0.41    0.0179
  86                   0.00    0.0000      0.00    0.0000
  87                  22.00    1.3508     10.16    0.0157
  88                   0.00    0.0000      0.00    0.0000
  89                   0.00    0.0000      0.00    0.0000
  9                  621.62    0.5723      0.18    0.0125
  90                  18.00    0.2822      0.27    0.0188
  92                   0.00    0.0000      0.00    0.0000
  93                   0.00    0.0000      0.00    0.0000
  94                   0.00    0.0000      0.00    0.0000
  95                   0.00    0.0000      0.00    0.0000
  96                   0.00    0.0000      0.00    0.0000
  97                  23.00    1.4122     11.02    0.0156
  98                   0.00    0.0000      0.00    0.0000
  99                   0.00    0.0000      0.00    0.0000
  55                  65.30    0.6345      0.86    0.0152
  101                  0.00    0.0000      0.00    0.0000
  108                 65.30    0.6345      0.86    0.0152
  109                  0.00    0.0000      0.00    0.0000
  49                  -0.00    0.0000      0.00    0.0000
  85                  -0.00    0.0000      0.00    0.0000
  91                  -0.00    0.0000      0.00    0.0000
  110                  0.00    0.0000      0.00    0.0000
  111                  0.00    0.0000      0.00    0.0000
  17                   0.00    0.0000      0.00    0.0000
  18                   0.00    0.0000      0.00    0.0000
  39                   0.00    0.0000      0.00    0.0000
  75                   0.00    0.0000      0.00    0.0000
  114                 -0.00    0.0000      0.00    0.0000
   
  Analysis ended Tue Jun  1 20:54:37 2021
