  Page 1                                    Tue Jun  1 20:54:37 2021

  ******************************************************************
  *                           E P A N E T                          *
  *                   Hydraulic and Water Quality                  *
  *                   Analysis for Pipe Networks                   *
  *                         Version 2.00.12                        *
  ******************************************************************
  
  C:\Mario\Violada 
   
      Input Data File ................... /home/borja/Escritorio/nery/epanet-telecontrol/flowpath/tmp.inp
      Number of Junctions................ 146
      Number of Reservoirs............... 1
      Number of Tanks ................... 0
      Number of Pipes ................... 146
      Number of Pumps ................... 0
      Number of Valves .................. 0
      Headloss Formula .................. Darcy-Weisbach
      Hydraulic Timestep ................ 1.00 hrs
      Hydraulic Accuracy ................ 0.001000
      Status Check Frequency ............ 2
      Maximum Trials Checked ............ 10
      Damping Limit Threshold ........... 0.000000
      Maximum Trials .................... 40
      Quality Analysis .................. None
      Specific Gravity .................. 1.00
      Relative Kinematic Viscosity ...... 1.00
      Relative Chemical Diffusivity ..... 1.00
      Demand Multiplier ................. 1.00
      Total Duration .................... 0.00 hrs
      Reporting Criteria:
         Selected Nodes
         No Links
         with Velocity above 3.00 m/s
   
  Analysis begun Tue Jun  1 20:54:37 2021

   
  Node Results:
  ----------------------------------------------
                     Demand      Head  Pressure
  Node                  L/s         m         m
  ----------------------------------------------
  213               0.000000e+00   4.469476e+02   6.404764e+01
  241               0.000000e+00   4.481259e+02   7.488595e+01
  245               0.000000e+00   4.481259e+02   9.800595e+01
  256               3.450000e+01   4.478624e+02   8.165237e+01
  276               0.000000e+00   4.474193e+02   6.532924e+01
  277               0.000000e+00   4.471348e+02   6.687479e+01
  286               0.000000e+00   4.470737e+02   6.524370e+01
  296               0.000000e+00   4.453116e+02   6.415165e+01
   
   
  Link Results:
  --------------------------------------------------------
                       Flow  Velocity  Headloss  F-Factor
  Link                  L/s       m/s    /1000m          
  --------------------------------------------------------
  1                   17.50    0.4362      0.77    0.0180
  10                   0.00    0.0000      0.00    0.0000
  100                  0.00    0.0000      0.00    0.0000
  102                 45.50    0.7132      1.42    0.0156
  103                 24.00    0.5983      1.36    0.0169
  104                 19.30    0.3025      0.30    0.0185
  105                 23.00    0.5733      1.26    0.0170
  106                  0.00    0.0000      0.00    0.0000
  107                153.10    0.9541      1.39    0.0135
  11                   0.00    0.0000      0.00    0.0000
  112                236.40    0.8706      0.86    0.0131
  113                 47.50    0.7446      1.53    0.0155
  117                372.00    1.0065      0.94    0.0124
  118                262.40    0.9663      1.04    0.0129
  119                309.90    1.1412      1.41    0.0125
  12                  -0.00    0.0000      0.00    0.0000
  120                 18.00    0.2822      0.27    0.0188
  122                  0.00    0.0000      0.00    0.0000
  123                 39.60    0.6207      1.10    0.0160
  126                 18.00    0.4487      0.81    0.0179
  127                 18.00    0.4487      0.81    0.0179
  128                236.40    1.1802      1.79    0.0128
  131                218.40    1.3611      2.66    0.0127
  132                236.40    1.1802      1.79    0.0128
  134                 23.00    1.4122     11.01    0.0156
  136                 42.30    0.4110      0.39    0.0166
  137                 23.00    1.4122     11.02    0.0156
  138                 23.00    0.5733      1.26    0.0170
  139                  0.00    0.0000      0.00    0.0000
  14                   0.00    0.0000      0.00    0.0000
  142                  0.00    0.0000      0.00    0.0000
  143                  0.00    0.0000      0.00    0.0000
  144                  0.00    0.0000      0.00    0.0000
  145                 89.60    0.8706      1.53    0.0143
  148                135.10    0.8420      1.11    0.0138
  149                153.10    0.9541      1.39    0.0135
  15                   0.00    0.0000      0.00    0.0000
  150                 21.60    0.3386      0.37    0.0181
  151                 21.60    1.3263      9.83    0.0158
  156                  0.00    0.0000      0.00    0.0000
  16                   0.00    0.0000      0.00    0.0000
  160                  0.00    0.0000      0.00    0.0000
  162                  0.00    0.0000      0.00    0.0000
  171                  0.00    0.0000      0.00    0.0000
  172                  0.00    0.0000      0.00    0.0000
  175                  0.00    0.0000      0.00    0.0000
  181                 71.20    1.7749      9.76    0.0137
  183                 -0.00    0.0000      0.00    0.0000
  184                 18.00    0.2822      0.27    0.0188
  185                 50.00    0.7838      1.68    0.0153
  19                  50.00    1.9432     14.97    0.0141
  2                  372.00    1.0065      0.94    0.0124
  20                  60.00    1.4957      7.15    0.0142
  21                  18.00    0.6996      2.36    0.0171
  22                  60.00    0.2210      0.07    0.0170
  23                   0.00    0.0000      0.00    0.0000
  24                  43.00    0.6740      1.28    0.0158
  25                  43.00    0.6740      1.28    0.0158
  26                   0.00    0.0000      0.00    0.0000
  27                  18.00    0.6996      2.36    0.0171
  28                  95.50    0.9279      1.72    0.0142
  29                 174.50    0.4721      0.24    0.0142
  3                   18.00    0.2822      0.27    0.0188
  30                  50.00    0.7838      1.68    0.0153
  31                 380.00    0.6205      0.29    0.0129
  32                   0.00    0.0000      0.00    0.0000
  33                 209.00    0.5655      0.33    0.0138
  34                 312.00    0.6479      0.36    0.0131
  36                  62.10    0.9734      2.49    0.0147
  37                   0.00    0.0000      0.00    0.0000
  38                   0.00    0.0000      0.00    0.0000
  4                    0.00    0.0000      0.00    0.0000
  40                   0.00    0.0000      0.00    0.0000
  41                 209.00    0.5655      0.33    0.0138
  42                   0.00    0.0000      0.00    0.0000
  43                 252.00    0.6818      0.46    0.0133
  44                   0.00    0.0000      0.00    0.0000
  45                   0.00    0.0000      0.00    0.0000
  46                   0.00    0.0000      0.00    0.0000
  47                 144.50    0.5321      0.35    0.0143
  48                 123.50    0.4548      0.26    0.0148
  5                    0.00    0.0000      0.00    0.0000
  50                  18.00    0.6996      2.36    0.0171
  51                 362.00    0.7518      0.47    0.0128
  52                  18.00    1.1052      7.07    0.0164
  53                  74.80    0.3734      0.22    0.0158
  54                 936.62    0.8623      0.38    0.0116
  56                  50.00    0.7838      1.68    0.0153
  57                 109.50    1.7165      6.98    0.0132
  58                   0.00    0.0000      0.00    0.0000
  59                 109.50    1.7165      6.98    0.0132
  6                    0.00    0.0000      0.00    0.0000
  60                   0.00    0.0000      0.00    0.0000
  61                 118.40    1.1504      2.54    0.0136
  62                  67.10    0.6520      0.91    0.0151
  63                 543.52    0.8876      0.55    0.0122
  64                  28.40    1.7438     16.14    0.0150
  65                   0.00    0.0000      0.00    0.0000
  66                 163.52    0.8164      0.92    0.0136
  67                  39.10    0.3799      0.34    0.0168
  68                  -0.00    0.0000      0.00    0.0000
  69                 140.40    0.8750      1.19    0.0137
  7                   60.00    0.9405      2.34    0.0148
  70                   0.00    0.0000      0.00    0.0000
  71                   0.00    0.0000      0.00    0.0000
  72                   0.00    0.0000      0.00    0.0000
  73                   0.00    0.0000      0.00    0.0000
  74                 915.52    0.8429      0.36    0.0118
  76                  30.00    0.2915      0.21    0.0178
  77                   0.00    0.0000      0.00    0.0000
  78                   0.00    0.0000      0.00    0.0000
  79                  21.00    1.2894      9.35    0.0159
  8                    0.00    0.0000      0.00    0.0000
  80                 174.50    0.4721      0.24    0.0142
  81                  32.00    0.7977      2.29    0.0160
  82                  48.80    0.3041      0.18    0.0169
  83                  -0.00    0.0000      0.00    0.0000
  84                  62.10    0.9734      2.49    0.0147
  86                  21.10    1.2956      9.43    0.0159
  87                  22.00    1.3508     10.16    0.0157
  88                  18.00    0.1122      0.03    0.0210
  89                   0.00    0.0000      0.00    0.0000
  9                 1046.12    0.9631      0.46    0.0114
  90                  18.00    0.2822      0.27    0.0188
  92                  26.00    0.1620      0.06    0.0195
  93                   0.00    0.0000      0.00    0.0000
  94                  30.80    0.1919      0.08    0.0184
  95                  18.00    0.6996      2.36    0.0171
  96                  -0.00    0.0000      0.00    0.0000
  97                  23.00    1.4122     11.02    0.0156
  98                   0.00    0.0000      0.00    0.0000
  99                   0.00    0.0000      0.00    0.0000
  55                  65.30    0.6345      0.86    0.0152
  101                  0.00    0.0000      0.00    0.0000
  108                 65.30    0.6345      0.86    0.0152
  109                 32.00    0.7977      2.29    0.0160
  49                 -30.00    0.2915      0.21    0.0178
  85                  -0.00    0.0000      0.00    0.0000
  91                  -0.00    0.0000      0.00    0.0000
  110                 -0.00    0.0000      0.00    0.0000
  111                  0.00    0.0000      0.00    0.0000
  17                  32.00    1.2437      6.66    0.0153
  18                  18.00    1.1052      7.08    0.0164
  39                   0.00    0.0000      0.00    0.0000
  75                   0.00    0.0000      0.00    0.0000
  114                  0.00    0.0000      0.00    0.0000
   
  Analysis ended Tue Jun  1 20:54:37 2021
