  Page 1                                    Tue Jun  1 20:54:38 2021

  ******************************************************************
  *                           E P A N E T                          *
  *                   Hydraulic and Water Quality                  *
  *                   Analysis for Pipe Networks                   *
  *                         Version 2.00.12                        *
  ******************************************************************
  
  C:\Mario\Violada 
   
      Input Data File ................... /home/borja/Escritorio/nery/epanet-telecontrol/flowpath/tmp.inp
      Number of Junctions................ 146
      Number of Reservoirs............... 1
      Number of Tanks ................... 0
      Number of Pipes ................... 146
      Number of Pumps ................... 0
      Number of Valves .................. 0
      Headloss Formula .................. Darcy-Weisbach
      Hydraulic Timestep ................ 1.00 hrs
      Hydraulic Accuracy ................ 0.001000
      Status Check Frequency ............ 2
      Maximum Trials Checked ............ 10
      Damping Limit Threshold ........... 0.000000
      Maximum Trials .................... 40
      Quality Analysis .................. None
      Specific Gravity .................. 1.00
      Relative Kinematic Viscosity ...... 1.00
      Relative Chemical Diffusivity ..... 1.00
      Demand Multiplier ................. 1.00
      Total Duration .................... 0.00 hrs
      Reporting Criteria:
         Selected Nodes
         No Links
         with Velocity above 3.00 m/s
   
  Analysis begun Tue Jun  1 20:54:38 2021

   
  Node Results:
  ----------------------------------------------
                     Demand      Head  Pressure
  Node                  L/s         m         m
  ----------------------------------------------
  213               0.000000e+00   4.479614e+02   6.506139e+01
  241               0.000000e+00   4.470325e+02   7.379255e+01
  245               0.000000e+00   4.475751e+02   9.745506e+01
  256               0.000000e+00   4.479165e+02   8.170655e+01
  276               0.000000e+00   4.476303e+02   6.554035e+01
  277               0.000000e+00   4.477076e+02   6.744759e+01
  286               0.000000e+00   4.460004e+02   6.417043e+01
  296               2.600000e+01   4.384636e+02   5.730358e+01
   
   
  Link Results:
  --------------------------------------------------------
                       Flow  Velocity  Headloss  F-Factor
  Link                  L/s       m/s    /1000m          
  --------------------------------------------------------
  1                   23.20    0.5783      1.28    0.0170
  10                  74.00    0.7190      1.08    0.0149
  100                  0.00    0.0000      0.00    0.0000
  102                 71.50    1.1208      3.21    0.0143
  103                 50.00    1.2464      5.13    0.0147
  104                  0.00    0.0000      0.00    0.0000
  105                 23.00    0.5733      1.26    0.0170
  106                 33.30    0.8301      2.46    0.0158
  107                111.10    0.6924      0.78    0.0143
  11                   0.00    0.0000      0.00    0.0000
  112                185.10    0.6817      0.55    0.0137
  113                 53.20    0.8339      1.88    0.0151
  117                294.60    0.7971      0.61    0.0130
  118                185.10    0.6817      0.55    0.0137
  119                238.30    0.8776      0.87    0.0131
  12                   0.00    0.0000      0.00    0.0000
  120                  0.00    0.0000      0.00    0.0000
  122                  0.00    0.0000      0.00    0.0000
  123                 21.60    0.3386      0.37    0.0181
  126                  0.00    0.0000      0.00    0.0000
  127                  0.00    0.0000      0.00    0.0000
  128                157.10    0.7843      0.85    0.0137
  131                157.10    0.9791      1.45    0.0134
  132                157.10    0.7843      0.85    0.0137
  134                 23.00    1.4122     11.02    0.0156
  136                 23.00    0.2235      0.13    0.0188
  137                 23.00    1.4122     11.02    0.0156
  138                 23.00    0.5733      1.26    0.0170
  139                  0.00    0.0000      0.00    0.0000
  14                   0.00    0.0000      0.00    0.0000
  142                 -0.00    0.0000      0.00    0.0000
  143                  0.00    0.0000      0.00    0.0000
  144                 26.00    1.0105      4.58    0.0159
  145                 39.60    0.3848      0.35    0.0168
  148                111.10    0.6924      0.78    0.0143
  149                111.10    0.6924      0.78    0.0143
  15                   0.00    0.0000      0.00    0.0000
  150                 21.60    0.3386      0.37    0.0181
  151                 21.60    1.3263      9.83    0.0158
  156                  0.00    0.0000      0.00    0.0000
  16                   0.00    0.0000      0.00    0.0000
  160                 19.30    0.3025      0.30    0.0185
  162                  0.00    0.0000      0.00    0.0000
  171                  0.00    0.0000      0.00    0.0000
  172                  0.00    0.0000      0.00    0.0000
  175                  0.00    0.0000      0.00    0.0000
  181                 71.20    1.7749      9.76    0.0137
  183                  0.00    0.0000      0.00    0.0000
  184                 18.00    0.2822      0.27    0.0188
  185                 18.00    0.2822      0.27    0.0188
  19                   0.00    0.0000      0.00    0.0000
  2                  294.60    0.7971      0.61    0.0130
  20                  60.00    1.4957      7.15    0.0142
  21                  18.00    0.6996      2.36    0.0171
  22                 152.60    0.5620      0.39    0.0142
  23                   0.00    0.0000      0.00    0.0000
  24                  43.00    0.6740      1.28    0.0158
  25                  43.00    0.6740      1.28    0.0158
  26                  74.00    0.3695      0.22    0.0158
  27                  18.00    0.6996      2.36    0.0171
  28                  37.30    0.3624      0.31    0.0170
  29                 139.70    0.3780      0.16    0.0149
  3                   37.30    0.5847      0.99    0.0162
  30                   0.00    0.0000      0.00    0.0000
  31                 395.30    0.6455      0.31    0.0129
  32                  74.00    0.3695      0.22    0.0158
  33                 199.70    0.5403      0.30    0.0139
  34                 395.30    0.8209      0.55    0.0126
  36                  56.30    0.8825      2.08    0.0150
  37                   0.00    0.0000      0.00    0.0000
  38                   0.00    0.0000      0.00    0.0000
  4                   74.00    0.4612      0.37    0.0155
  40                   0.00    0.0000      0.00    0.0000
  41                 139.70    0.3780      0.16    0.0148
  42                  20.00    1.2280      8.56    0.0160
  43                 242.70    0.6566      0.43    0.0134
  44                   0.00    0.0000      0.00    0.0000
  45                   0.00    0.0000      0.00    0.0000
  46                  60.00    1.4957      7.15    0.0142
  47                 139.70    0.5145      0.33    0.0144
  48                 118.70    0.4371      0.25    0.0149
  5                    0.00    0.0000      0.00    0.0000
  50                   0.00    0.0000      0.00    0.0000
  51                 395.30    0.8209      0.55    0.0126
  52                   0.00    0.0000      0.00    0.0000
  53                   0.00    0.0000      0.00    0.0000
  54                 795.22    0.7321      0.28    0.0120
  56                   0.00    0.0000      0.00    0.0000
  57                 109.50    1.7165      6.98    0.0132
  58                  -0.00    0.0000      0.00    0.0000
  59                 109.50    1.7165      6.98    0.0132
  6                    0.00    0.0000      0.00    0.0000
  60                   0.00    0.0000      0.00    0.0000
  61                  60.20    0.5849      0.74    0.0155
  62                  37.30    0.3624      0.31    0.0170
  63                 500.62    0.8175      0.48    0.0123
  64                   0.00    0.0000      0.00    0.0000
  65                   0.00    0.0000      0.00    0.0000
  66                 105.32    0.5258      0.41    0.0148
  67                  37.30    0.3624      0.31    0.0170
  68                  -0.00    0.0000      0.00    0.0000
  69                  82.20    0.5123      0.45    0.0152
  7                   78.60    1.2321      3.82    0.0141
  70                  19.30    0.3025      0.30    0.0185
  71                   0.00    0.0000      0.00    0.0000
  72                   0.00    0.0000      0.00    0.0000
  73                   0.00    0.0000      0.00    0.0000
  74                 795.22    0.7321      0.28    0.0120
  76                   0.00    0.0000      0.00    0.0000
  77                   0.00    0.0000      0.00    0.0000
  78                  70.00    1.0973      3.09    0.0144
  79                  21.00    1.2894      9.35    0.0159
  8                    0.00    0.0000      0.00    0.0000
  80                 139.70    0.3780      0.16    0.0149
  81                   0.00    0.0000      0.00    0.0000
  82                   0.00    0.0000      0.00    0.0000
  83                   0.00    0.0000      0.00    0.0000
  84                  56.30    0.8825      2.08    0.0150
  86                  -0.00    0.0000      0.00    0.0000
  87                  22.00    1.3508     10.16    0.0157
  88                   0.00    0.0000      0.00    0.0000
  89                   0.00    0.0000      0.00    0.0000
  9                  904.72    0.8329      0.35    0.0117
  90                  37.30    0.5847      0.99    0.0162
  92                   0.00    0.0000      0.00    0.0000
  93                  26.00    1.5965     13.75    0.0153
  94                   0.00    0.0000      0.00    0.0000
  95                   0.00    0.0000      0.00    0.0000
  96                   0.00    0.0000      0.00    0.0000
  97                  23.00    1.4122     11.02    0.0156
  98                   0.00    0.0000      0.00    0.0000
  99                  23.20    1.4245     11.19    0.0156
  55                  46.00    0.4469      0.46    0.0163
  101                  0.00    0.0000      0.00    0.0000
  108                 46.00    0.4469      0.46    0.0163
  109                  0.00    0.0000      0.00    0.0000
  49                  -0.00    0.0000      0.00    0.0000
  85                 -74.00    0.4612      0.37    0.0155
  91                 -39.00    0.6113      1.07    0.0161
  110                  0.00    0.0000      0.00    0.0000
  111                  0.00    0.0000      0.00    0.0000
  17                  -0.00    0.0000      0.00    0.0000
  18                   0.00    0.0000      0.00    0.0000
  39                   0.00    0.0000      0.00    0.0000
  75                   0.00    0.0000      0.00    0.0000
  114                 -0.00    0.0000      0.00    0.0000
   
  Analysis ended Tue Jun  1 20:54:38 2021
