  Page 1                                    Tue Jun  1 20:54:42 2021

  ******************************************************************
  *                           E P A N E T                          *
  *                   Hydraulic and Water Quality                  *
  *                   Analysis for Pipe Networks                   *
  *                         Version 2.00.12                        *
  ******************************************************************
  
  C:\Mario\Violada 
   
      Input Data File ................... /home/borja/Escritorio/nery/epanet-telecontrol/flowpath/tmp.inp
      Number of Junctions................ 146
      Number of Reservoirs............... 1
      Number of Tanks ................... 0
      Number of Pipes ................... 146
      Number of Pumps ................... 0
      Number of Valves .................. 0
      Headloss Formula .................. Darcy-Weisbach
      Hydraulic Timestep ................ 1.00 hrs
      Hydraulic Accuracy ................ 0.001000
      Status Check Frequency ............ 2
      Maximum Trials Checked ............ 10
      Damping Limit Threshold ........... 0.000000
      Maximum Trials .................... 40
      Quality Analysis .................. None
      Specific Gravity .................. 1.00
      Relative Kinematic Viscosity ...... 1.00
      Relative Chemical Diffusivity ..... 1.00
      Demand Multiplier ................. 1.00
      Total Duration .................... 0.00 hrs
      Reporting Criteria:
         Selected Nodes
         No Links
         with Velocity above 3.00 m/s
   
  Analysis begun Tue Jun  1 20:54:42 2021

   
  Node Results:
  ----------------------------------------------
                     Demand      Head  Pressure
  Node                  L/s         m         m
  ----------------------------------------------
  213               0.000000e+00   4.475443e+02   6.464433e+01
  241               0.000000e+00   4.464224e+02   7.318243e+01
  245               0.000000e+00   4.469649e+02   9.684494e+01
  256               0.000000e+00   4.479696e+02   8.175957e+01
  276               0.000000e+00   4.476834e+02   6.559341e+01
  277               2.600000e+01   4.446016e+02   6.434159e+01
  286               0.000000e+00   4.430125e+02   6.118255e+01
  296               2.600000e+01   4.406909e+02   5.953091e+01
   
   
  Link Results:
  --------------------------------------------------------
                       Flow  Velocity  Headloss  F-Factor
  Link                  L/s       m/s    /1000m          
  --------------------------------------------------------
  1                   23.20    0.5783      1.28    0.0170
  10                  74.00    0.7190      1.08    0.0149
  100                  0.00    0.0000      0.00    0.0000
  102                 47.50    0.7446      1.53    0.0155
  103                 26.00    0.6481      1.57    0.0166
  104                  0.00    0.0000      0.00    0.0000
  105                 23.00    0.5733      1.26    0.0170
  106                 60.10    1.4982      7.17    0.0142
  107                114.10    0.7111      0.81    0.0143
  11                   0.00    0.0000      0.00    0.0000
  112                178.10    0.6559      0.51    0.0138
  113                 53.20    0.8339      1.88    0.0151
  117                291.40    0.7884      0.60    0.0130
  118                178.10    0.6559      0.51    0.0138
  119                231.30    0.8518      0.83    0.0132
  12                  -0.00    0.0000      0.00    0.0000
  120                 18.00    0.2822      0.27    0.0188
  122                 18.00    0.6996      2.36    0.0171
  123                 21.60    0.3386      0.37    0.0181
  126                 18.00    0.4487      0.81    0.0179
  127                 18.00    0.4487      0.81    0.0179
  128                178.10    0.8892      1.07    0.0134
  131                160.10    0.9978      1.51    0.0135
  132                178.10    0.8892      1.07    0.0134
  134                  0.00    0.0000      0.00    0.0000
  136                 23.00    0.2235      0.13    0.0188
  137                 23.00    1.4122     11.02    0.0156
  138                 23.00    0.5733      1.26    0.0170
  139                  0.00    0.0000      0.00    0.0000
  14                   0.00    0.0000      0.00    0.0000
  142                  0.00    0.0000      0.00    0.0000
  143                  0.00    0.0000      0.00    0.0000
  144                 26.00    1.0105      4.58    0.0159
  145                 39.60    0.3848      0.35    0.0168
  148                114.10    0.7111      0.81    0.0143
  149                114.10    0.7111      0.81    0.0143
  15                   0.00    0.0000      0.00    0.0000
  150                 21.60    0.3386      0.37    0.0181
  151                 21.60    1.3263      9.83    0.0158
  156                  0.00    0.0000      0.00    0.0000
  16                   0.00    0.0000      0.00    0.0000
  160                 45.30    0.7101      1.41    0.0156
  162                  0.00    0.0000      0.00    0.0000
  171                 26.00    1.0105      4.58    0.0159
  172                 26.00    0.4076      0.52    0.0174
  175                  0.00    0.0000      0.00    0.0000
  181                 71.20    1.7749      9.76    0.0137
  183                 18.00    0.6996      2.36    0.0171
  184                 18.00    0.2822      0.27    0.0188
  185                 18.00    0.2822      0.27    0.0188
  19                  50.00    1.9432     14.97    0.0141
  2                  291.40    0.7884      0.60    0.0130
  20                   0.00    0.0000      0.00    0.0000
  21                   0.00    0.0000      0.00    0.0000
  22                 174.00    0.6408      0.49    0.0139
  23                   0.00    0.0000      0.00    0.0000
  24                   0.00    0.0000      0.00    0.0000
  25                   0.00    0.0000      0.00    0.0000
  26                 174.00    0.8687      1.03    0.0135
  27                   0.00    0.0000      0.00    0.0000
  28                  63.30    0.6150      0.81    0.0153
  29                 139.70    0.3780      0.16    0.0148
  3                   63.30    0.9923      2.58    0.0146
  30                  50.00    0.7838      1.68    0.0153
  31                 403.70    0.6592      0.32    0.0128
  32                 174.00    0.8687      1.03    0.0135
  33                 179.70    0.4862      0.25    0.0142
  34                 353.70    0.7345      0.45    0.0128
  36                  60.10    0.9421      2.34    0.0148
  37                   0.00    0.0000      0.00    0.0000
  38                   0.00    0.0000      0.00    0.0000
  4                   74.00    0.4612      0.37    0.0155
  40                   0.00    0.0000      0.00    0.0000
  41                 139.70    0.3780      0.16    0.0149
  42                   0.00    0.0000      0.00    0.0000
  43                 179.70    0.4862      0.25    0.0142
  44                   0.00    0.0000      0.00    0.0000
  45                   0.00    0.0000      0.00    0.0000
  46                  40.00    0.9971      3.43    0.0153
  47                 139.70    0.5145      0.33    0.0144
  48                 118.70    0.4371      0.25    0.0149
  5                   -0.00    0.0000      0.00    0.0000
  50                   0.00    0.0000      0.00    0.0000
  51                 403.70    0.8384      0.57    0.0126
  52                  -0.00    0.0000      0.00    0.0000
  53                   0.00    0.0000      0.00    0.0000
  54                 826.42    0.7608      0.30    0.0119
  56                  50.00    0.7838      1.68    0.0153
  57                 109.50    1.7165      6.98    0.0132
  58                   0.00    0.0000      0.00    0.0000
  59                 109.50    1.7165      6.98    0.0132
  6                  100.00    0.6232      0.64    0.0146
  60                   0.00    0.0000      0.00    0.0000
  61                  86.20    0.8375      1.43    0.0144
  62                  63.30    0.6150      0.81    0.0153
  63                 535.02    0.8737      0.54    0.0122
  64                  -0.00    0.0000      0.00    0.0000
  65                   0.00    0.0000      0.00    0.0000
  66                 131.32    0.6556      0.62    0.0142
  67                  63.30    0.6150      0.81    0.0153
  68                  26.00    1.5965     13.75    0.0153
  69                 108.20    0.6743      0.74    0.0144
  7                    0.00    0.0000      0.00    0.0000
  70                  45.30    0.7101      1.41    0.0156
  71                  26.80    1.6456     14.53    0.0152
  72                   0.00    0.0000      0.00    0.0000
  73                  -0.00    0.0000      0.00    0.0000
  74                 826.42    0.7608      0.30    0.0119
  76                   0.00    0.0000      0.00    0.0000
  77                  -0.00    0.0000      0.00    0.0000
  78                  70.00    1.0973      3.09    0.0144
  79                  21.00    1.2894      9.35    0.0159
  8                    0.00    0.0000      0.00    0.0000
  80                 139.70    0.3780      0.16    0.0149
  81                   0.00    0.0000      0.00    0.0000
  82                   0.00    0.0000      0.00    0.0000
  83                   0.00    0.0000      0.00    0.0000
  84                  60.10    0.9421      2.34    0.0148
  86                   0.00    0.0000      0.00    0.0000
  87                  22.00    1.3508     10.17    0.0157
  88                   0.00    0.0000      0.00    0.0000
  89                   0.00    0.0000      0.00    0.0000
  9                  935.92    0.8617      0.37    0.0116
  90                  63.30    0.9923      2.58    0.0146
  92                  -0.00    0.0000      0.00    0.0000
  93                  26.00    1.5965     13.75    0.0153
  94                   0.00    0.0000      0.00    0.0000
  95                   0.00    0.0000      0.00    0.0000
  96                  -0.00    0.0000      0.00    0.0000
  97                  23.00    1.4122     11.02    0.0156
  98                   0.00    0.0000      0.00    0.0000
  99                  23.20    1.4245     11.19    0.0156
  55                  46.00    0.4469      0.46    0.0163
  101                  0.00    0.0000      0.00    0.0000
  108                 46.00    0.4469      0.46    0.0163
  109                  0.00    0.0000      0.00    0.0000
  49                  -0.00    0.0000      0.00    0.0000
  85                 -74.00    0.4612      0.37    0.0155
  91                 -39.00    0.6113      1.07    0.0161
  110                  0.00    0.0000      0.00    0.0000
  111                  0.00    0.0000      0.00    0.0000
  17                  -0.00    0.0000      0.00    0.0000
  18                   0.00    0.0000      0.00    0.0000
  39                   0.00    0.0000      0.00    0.0000
  75                   0.00    0.0000      0.00    0.0000
  114                  0.00    0.0000      0.00    0.0000
   
  Analysis ended Tue Jun  1 20:54:42 2021
