  Page 1                                    Tue Jun  1 20:54:42 2021

  ******************************************************************
  *                           E P A N E T                          *
  *                   Hydraulic and Water Quality                  *
  *                   Analysis for Pipe Networks                   *
  *                         Version 2.00.12                        *
  ******************************************************************
  
  C:\Mario\Violada 
   
      Input Data File ................... /home/borja/Escritorio/nery/epanet-telecontrol/flowpath/tmp.inp
      Number of Junctions................ 146
      Number of Reservoirs............... 1
      Number of Tanks ................... 0
      Number of Pipes ................... 146
      Number of Pumps ................... 0
      Number of Valves .................. 0
      Headloss Formula .................. Darcy-Weisbach
      Hydraulic Timestep ................ 1.00 hrs
      Hydraulic Accuracy ................ 0.001000
      Status Check Frequency ............ 2
      Maximum Trials Checked ............ 10
      Damping Limit Threshold ........... 0.000000
      Maximum Trials .................... 40
      Quality Analysis .................. None
      Specific Gravity .................. 1.00
      Relative Kinematic Viscosity ...... 1.00
      Relative Chemical Diffusivity ..... 1.00
      Demand Multiplier ................. 1.00
      Total Duration .................... 0.00 hrs
      Reporting Criteria:
         Selected Nodes
         No Links
         with Velocity above 3.00 m/s
   
  Analysis begun Tue Jun  1 20:54:42 2021

   
  Node Results:
  ----------------------------------------------
                     Demand      Head  Pressure
  Node                  L/s         m         m
  ----------------------------------------------
  213               0.000000e+00   4.468420e+02   6.394201e+01
  241               2.800000e+01   4.440900e+02   7.084999e+01
  245               0.000000e+00   4.466890e+02   9.656898e+01
  256               3.450000e+01   4.479358e+02   8.172582e+01
  276               0.000000e+00   4.477909e+02   6.570090e+01
  277               2.600000e+01   4.438950e+02   6.363499e+01
  286               0.000000e+00   4.479153e+02   6.608524e+01
  296               2.600000e+01   4.396690e+02   5.850898e+01
   
   
  Link Results:
  --------------------------------------------------------
                       Flow  Velocity  Headloss  F-Factor
  Link                  L/s       m/s    /1000m          
  --------------------------------------------------------
  1                   40.70    1.0146      3.54    0.0152
  10                  67.00    0.6510      0.90    0.0151
  100                 24.00    0.5983      1.36    0.0169
  102                 47.50    0.7446      1.53    0.0155
  103                 26.00    0.6481      1.57    0.0166
  104                 19.30    0.3025      0.30    0.0185
  105                 24.00    0.5983      1.36    0.0169
  106                  0.00    0.0000      0.00    0.0000
  107                170.10    1.0601      1.68    0.0133
  11                  28.00    0.6980      1.80    0.0164
  112                254.40    0.9369      0.98    0.0129
  113                 40.70    0.6380      1.16    0.0159
  117                334.20    0.9042      0.77    0.0127
  118                254.40    0.9369      0.98    0.0129
  119                295.10    1.0867      1.29    0.0126
  12                  -0.00    0.0000      0.00    0.0000
  120                 18.00    0.2822      0.27    0.0188
  122                 18.00    0.6996      2.36    0.0171
  123                 45.60    0.7148      1.42    0.0156
  126                 18.00    0.4487      0.81    0.0179
  127                 18.00    0.4487      0.81    0.0179
  128                254.40    1.2701      2.05    0.0126
  131                236.40    1.4733      3.07    0.0125
  132                254.40    1.2701      2.05    0.0126
  134                  0.00    0.0000      0.00    0.0000
  136                 43.30    0.4207      0.41    0.0165
  137                  0.00    0.0000      0.00    0.0000
  138                 23.00    0.5733      1.26    0.0170
  139                  0.00    0.0000      0.00    0.0000
  14                   0.00    0.0000      0.00    0.0000
  142                  0.00    0.0000      0.00    0.0000
  143                  0.00    0.0000      0.00    0.0000
  144                 26.00    1.0105      4.58    0.0159
  145                 77.60    0.7540      1.18    0.0147
  148                152.10    0.9479      1.37    0.0135
  149                152.10    0.9479      1.37    0.0135
  15                   0.00    0.0000      0.00    0.0000
  150                 45.60    0.7148      1.42    0.0156
  151                 21.60    1.3263      9.83    0.0158
  156                 -0.00    0.0000      0.00    0.0000
  16                   0.00    0.0000      0.00    0.0000
  160                 66.30    1.0393      2.80    0.0145
  162                 21.00    0.3292      0.35    0.0182
  171                 26.00    1.0105      4.58    0.0159
  172                 26.00    0.4076      0.52    0.0174
  175                  0.00    0.0000      0.00    0.0000
  181                  0.00    0.0000      0.00    0.0000
  183                 18.00    0.6996      2.36    0.0171
  184                  0.00    0.0000      0.00    0.0000
  185                 32.00    0.5016      0.75    0.0167
  19                   0.00    0.0000      0.00    0.0000
  2                  334.20    0.9042      0.77    0.0127
  20                   0.00    0.0000      0.00    0.0000
  21                  -0.00    0.0000      0.00    0.0000
  22                 205.40    0.7564      0.67    0.0134
  23                   0.00    0.0000      0.00    0.0000
  24                  -0.00    0.0000      0.00    0.0000
  25                  -0.00    0.0000      0.00    0.0000
  26                 186.80    0.9326      1.17    0.0133
  27                  -0.00    0.0000      0.00    0.0000
  28                  87.40    0.8492      1.46    0.0144
  29                 120.60    0.3263      0.12    0.0153
  3                   66.30    1.0393      2.80    0.0145
  30                  29.00    0.4546      0.63    0.0170
  31                 409.50    0.6687      0.33    0.0128
  32                 186.80    0.9326      1.17    0.0133
  33                 175.10    0.4737      0.24    0.0142
  34                 380.50    0.7902      0.52    0.0127
  36                  39.10    0.6129      1.08    0.0160
  37                   0.00    0.0000      0.00    0.0000
  38                   0.00    0.0000      0.00    0.0000
  4                   86.80    0.5409      0.50    0.0150
  40                   0.00    0.0000      0.00    0.0000
  41                 155.10    0.4196      0.19    0.0146
  42                  20.00    1.2280      8.56    0.0160
  43                 175.10    0.4737      0.24    0.0142
  44                  41.80    1.0420      3.71    0.0152
  45                  41.80    1.6245     10.81    0.0146
  46                  20.00    0.4986      0.98    0.0175
  47                  48.80    0.1797      0.05    0.0177
  48                  48.80    0.1797      0.05    0.0178
  5                   -0.00    0.0000      0.00    0.0000
  50                   0.00    0.0000      0.00    0.0000
  51                 409.50    0.8504      0.59    0.0125
  52                  -0.00    0.0000      0.00    0.0000
  53                  48.80    0.2436      0.10    0.0172
  54                 874.20    0.8048      0.33    0.0118
  56                   0.00    0.0000      0.00    0.0000
  57                   0.00    0.0000      0.00    0.0000
  58                   0.00    0.0000      0.00    0.0000
  59                   0.00    0.0000      0.00    0.0000
  6                  100.00    0.6232      0.64    0.0146
  60                  24.00    0.5983      1.36    0.0169
  61                  87.40    0.8492      1.46    0.0144
  62                  87.40    0.8492      1.46    0.0144
  63                 518.90    0.8474      0.51    0.0123
  64                   0.00    0.0000      0.00    0.0000
  65                   0.00    0.0000      0.00    0.0000
  66                 109.40    0.5462      0.44    0.0147
  67                  87.40    0.8492      1.46    0.0144
  68                  26.00    1.5965     13.75    0.0153
  69                 109.40    0.6818      0.75    0.0144
  7                   18.60    0.2916      0.28    0.0187
  70                  45.30    0.7101      1.41    0.0156
  71                   0.00    0.0000      0.00    0.0000
  72                   0.00    0.0000      0.00    0.0000
  73                   0.00    0.0000      0.00    0.0000
  74                 853.10    0.7854      0.32    0.0118
  76                  30.00    0.2915      0.21    0.0178
  77                   0.00    0.0000      0.00    0.0000
  78                   0.00    0.0000      0.00    0.0000
  79                   0.00    0.0000      0.00    0.0000
  8                    0.00    0.0000      0.00    0.0000
  80                  78.80    0.2132      0.06    0.0166
  81                  32.00    0.7977      2.29    0.0160
  82                  48.80    0.3041      0.17    0.0168
  83                  -0.00    0.0000      0.00    0.0000
  84                  39.10    0.6129      1.08    0.0160
  86                  21.10    1.2956      9.43    0.0159
  87                  22.00    1.3508     10.17    0.0157
  88                  18.00    0.1122      0.03    0.0210
  89                  29.00    1.1271      5.57    0.0156
  9                  874.20    0.8048      0.33    0.0118
  90                  66.30    1.0393      2.80    0.0145
  92                   0.00    0.0000      0.00    0.0000
  93                  26.00    1.5965     13.75    0.0153
  94                  30.80    0.1919      0.08    0.0186
  95                   0.00    0.0000      0.00    0.0000
  96                   0.00    0.0000      0.00    0.0000
  97                  23.00    1.4122     11.02    0.0156
  98                   0.00    0.0000      0.00    0.0000
  99                  23.20    1.4245     11.19    0.0156
  55                  66.30    0.6442      0.89    0.0152
  101                  0.00    0.0000      0.00    0.0000
  108                 66.30    0.6442      0.89    0.0152
  109                 32.00    0.7977      2.29    0.0160
  49                 -30.00    0.2915      0.21    0.0178
  85                 -86.80    0.5409      0.50    0.0150
  91                 -39.00    0.6113      1.07    0.0161
  110                  0.00    0.0000      0.00    0.0000
  111                  0.00    0.0000      0.00    0.0000
  17                  32.00    1.2437      6.66    0.0153
  18                  -0.00    0.0000      0.00    0.0000
  39                   0.00    0.0000      0.00    0.0000
  75                   0.00    0.0000      0.00    0.0000
  114                -28.00    1.0882      5.23    0.0157
   
  Analysis ended Tue Jun  1 20:54:42 2021
