  Page 1                                    Tue Jun  1 20:54:49 2021

  ******************************************************************
  *                           E P A N E T                          *
  *                   Hydraulic and Water Quality                  *
  *                   Analysis for Pipe Networks                   *
  *                         Version 2.00.12                        *
  ******************************************************************
  
  C:\Mario\Violada 
   
      Input Data File ................... /home/borja/Escritorio/nery/epanet-telecontrol/flowpath/tmp.inp
      Number of Junctions................ 146
      Number of Reservoirs............... 1
      Number of Tanks ................... 0
      Number of Pipes ................... 146
      Number of Pumps ................... 0
      Number of Valves .................. 0
      Headloss Formula .................. Darcy-Weisbach
      Hydraulic Timestep ................ 1.00 hrs
      Hydraulic Accuracy ................ 0.001000
      Status Check Frequency ............ 2
      Maximum Trials Checked ............ 10
      Damping Limit Threshold ........... 0.000000
      Maximum Trials .................... 40
      Quality Analysis .................. None
      Specific Gravity .................. 1.00
      Relative Kinematic Viscosity ...... 1.00
      Relative Chemical Diffusivity ..... 1.00
      Demand Multiplier ................. 1.00
      Total Duration .................... 0.00 hrs
      Reporting Criteria:
         Selected Nodes
         No Links
         with Velocity above 3.00 m/s
   
  Analysis begun Tue Jun  1 20:54:49 2021

   
  Node Results:
  ----------------------------------------------
                     Demand      Head  Pressure
  Node                  L/s         m         m
  ----------------------------------------------
  213               0.000000e+00   4.469918e+02   6.409180e+01
  241               0.000000e+00   4.426794e+02   6.943944e+01
  245               0.000000e+00   4.411239e+02   9.100392e+01
  256               0.000000e+00   4.474233e+02   8.121333e+01
  276               0.000000e+00   4.470178e+02   6.492777e+01
  277               0.000000e+00   4.472263e+02   6.696629e+01
  286               0.000000e+00   4.481431e+02   6.631314e+01
  296               2.600000e+01   4.395208e+02   5.836086e+01
   
   
  Link Results:
  --------------------------------------------------------
                       Flow  Velocity  Headloss  F-Factor
  Link                  L/s       m/s    /1000m          
  --------------------------------------------------------
  1                   23.20    0.5783      1.28    0.0170
  10                 121.00    1.1756      2.64    0.0136
  100                  0.00    0.0000      0.00    0.0000
  102                 47.50    0.7446      1.53    0.0155
  103                 26.00    0.6481      1.57    0.0166
  104                 19.30    0.3025      0.30    0.0185
  105                 47.00    1.1716      4.59    0.0148
  106                  0.00    0.0000      0.00    0.0000
  107                164.10    1.0227      1.57    0.0134
  11                  86.00    2.1438     13.76    0.0133
  112                271.40    0.9995      1.11    0.0128
  113                 23.20    0.3637      0.42    0.0178
  117                335.60    0.9080      0.78    0.0127
  118                271.40    0.9995      1.11    0.0128
  119                294.60    1.0849      1.29    0.0126
  12                  86.00    2.1438     13.76    0.0133
  120                  0.00    0.0000      0.00    0.0000
  122                  0.00    0.0000      0.00    0.0000
  123                 21.60    0.3386      0.37    0.0181
  126                  0.00    0.0000      0.00    0.0000
  127                  0.00    0.0000      0.00    0.0000
  128                271.40    1.3550      2.31    0.0125
  131                253.40    1.5792      3.48    0.0124
  132                253.40    1.2651      2.04    0.0126
  134                 23.00    1.4122     11.02    0.0156
  136                 66.30    0.6442      0.89    0.0152
  137                 23.00    1.4122     11.02    0.0156
  138                 23.00    0.5733      1.26    0.0170
  139                  0.00    0.0000      0.00    0.0000
  14                  33.00    0.5173      0.79    0.0166
  142                  0.00    0.0000      0.00    0.0000
  143                  0.00    0.0000      0.00    0.0000
  144                 26.00    1.0105      4.58    0.0159
  145                 71.60    0.6957      1.02    0.0149
  148                146.10    0.9105      1.27    0.0136
  149                146.10    0.9105      1.27    0.0136
  15                  20.00    0.3135      0.32    0.0184
  150                 21.60    0.3386      0.37    0.0181
  151                 21.60    1.3263      9.83    0.0158
  156                  0.00    0.0000      0.00    0.0000
  16                   0.00    0.0000      0.00    0.0000
  160                 21.00    0.3292      0.35    0.0182
  162                 21.00    0.3292      0.35    0.0182
  171                  0.00    0.0000      0.00    0.0000
  172                  0.00    0.0000      0.00    0.0000
  175                  0.00    0.0000      0.00    0.0000
  181                 71.20    1.7749      9.76    0.0137
  183                  0.00    0.0000      0.00    0.0000
  184                 18.00    0.2822      0.27    0.0188
  185                 50.00    0.7838      1.68    0.0153
  19                   0.00    0.0000      0.00    0.0000
  2                  357.60    0.9675      0.87    0.0125
  20                   0.00    0.0000      0.00    0.0000
  21                  18.00    0.6996      2.36    0.0171
  22                 174.00    0.6408      0.49    0.0139
  23                   0.00    0.0000      0.00    0.0000
  24                  57.00    0.8935      2.13    0.0149
  25                  18.00    0.2822      0.27    0.0188
  26                 141.00    0.7040      0.70    0.0140
  27                  18.00    0.6996      2.36    0.0171
  28                  60.10    0.5839      0.74    0.0155
  29                 211.50    0.5722      0.33    0.0137
  3                   39.00    0.6113      1.07    0.0161
  30                   0.00    0.0000      0.00    0.0000
  31                 482.50    0.7879      0.44    0.0124
  32                 174.00    0.8687      1.03    0.0135
  33                 251.50    0.6805      0.46    0.0133
  34                 482.50    1.0020      0.79    0.0122
  36                  23.00    0.3605      0.42    0.0179
  37                   0.00    0.0000      0.00    0.0000
  38                   0.00    0.0000      0.00    0.0000
  4                  141.00    0.8787      1.19    0.0137
  40                   0.00    0.0000      0.00    0.0000
  41                 211.50    0.5722      0.33    0.0138
  42                   0.00    0.0000      0.00    0.0000
  43                 308.50    0.8347      0.66    0.0129
  44                  41.80    1.0420      3.71    0.0152
  45                  41.80    1.6245     10.81    0.0146
  46                  40.00    0.9971      3.43    0.0153
  47                 139.70    0.5145      0.33    0.0144
  48                 118.70    0.4371      0.25    0.0149
  5                   -0.00    0.0000      0.00    0.0000
  50                   0.00    0.0000      0.00    0.0000
  51                 482.50    1.0020      0.79    0.0121
  52                  -0.00    0.0000      0.00    0.0000
  53                   0.00    0.0000      0.00    0.0000
  54                 945.10    0.8701      0.38    0.0116
  56                   0.00    0.0000      0.00    0.0000
  57                 109.50    1.7165      6.98    0.0132
  58                   0.00    0.0000      0.00    0.0000
  59                 109.50    1.7165      6.98    0.0132
  6                    0.00    0.0000      0.00    0.0000
  60                   0.00    0.0000      0.00    0.0000
  61                  83.00    0.8064      1.33    0.0145
  62                  60.10    0.5839      0.74    0.0155
  63                 587.50    0.9594      0.64    0.0120
  64                   0.00    0.0000      0.00    0.0000
  65                   0.00    0.0000      0.00    0.0000
  66                 105.00    0.5242      0.41    0.0148
  67                  60.10    0.5839      0.74    0.0155
  68                  -0.00    0.0000      0.00    0.0000
  69                 105.00    0.6544      0.70    0.0145
  7                    0.00    0.0000      0.00    0.0000
  70                   0.00    0.0000      0.00    0.0000
  71                   0.00    0.0000      0.00    0.0000
  72                   0.00    0.0000      0.00    0.0000
  73                   0.00    0.0000      0.00    0.0000
  74                 945.10    0.8701      0.38    0.0116
  76                  30.00    0.2915      0.21    0.0178
  77                  -0.00    0.0000      0.00    0.0000
  78                  70.00    1.0973      3.09    0.0144
  79                  21.00    1.2894      9.35    0.0159
  8                   20.00    1.2280      8.56    0.0160
  80                 169.70    0.4591      0.22    0.0143
  81                  32.00    0.7977      2.29    0.0160
  82                   0.00    0.0000      0.00    0.0000
  83                   0.00    0.0000      0.00    0.0000
  84                  41.00    0.6427      1.17    0.0159
  86                  21.10    1.2956      9.43    0.0159
  87                  22.00    1.3508     10.17    0.0157
  88                   0.00    0.0000      0.00    0.0000
  89                   0.00    0.0000      0.00    0.0000
  9                 1054.60    0.9709      0.47    0.0114
  90                  39.00    0.6113      1.07    0.0161
  92                  -0.00    0.0000      0.00    0.0000
  93                  26.00    1.5965     13.75    0.0153
  94                   0.00    0.0000      0.00    0.0000
  95                   0.00    0.0000      0.00    0.0000
  96                  -0.00    0.0000      0.00    0.0000
  97                  23.00    1.4122     11.02    0.0156
  98                   0.00    0.0000      0.00    0.0000
  99                  23.20    1.4245     11.19    0.0156
  55                  89.30    0.8676      1.52    0.0143
  101                  0.00    0.0000      0.00    0.0000
  108                 89.30    0.8676      1.52    0.0143
  109                 32.00    0.7977      2.29    0.0160
  49                 -30.00    0.2915      0.21    0.0178
  85                -141.00    0.8787      1.20    0.0137
  91                  -0.00    0.0000      0.00    0.0000
  110                  0.00    0.0000      0.00    0.0000
  111                 20.00    1.2280      8.56    0.0160
  17                  32.00    1.2437      6.66    0.0153
  18                   0.00    0.0000      0.00    0.0000
  39                   0.00    0.0000      0.00    0.0000
  75                   0.00    0.0000      0.00    0.0000
  114                 -0.00    0.0000      0.00    0.0000
   
  Analysis ended Tue Jun  1 20:54:49 2021
