  Page 1                                    Tue Jun  1 20:54:49 2021

  ******************************************************************
  *                           E P A N E T                          *
  *                   Hydraulic and Water Quality                  *
  *                   Analysis for Pipe Networks                   *
  *                         Version 2.00.12                        *
  ******************************************************************
  
  C:\Mario\Violada 
   
      Input Data File ................... /home/borja/Escritorio/nery/epanet-telecontrol/flowpath/tmp.inp
      Number of Junctions................ 146
      Number of Reservoirs............... 1
      Number of Tanks ................... 0
      Number of Pipes ................... 146
      Number of Pumps ................... 0
      Number of Valves .................. 0
      Headloss Formula .................. Darcy-Weisbach
      Hydraulic Timestep ................ 1.00 hrs
      Hydraulic Accuracy ................ 0.001000
      Status Check Frequency ............ 2
      Maximum Trials Checked ............ 10
      Damping Limit Threshold ........... 0.000000
      Maximum Trials .................... 40
      Quality Analysis .................. None
      Specific Gravity .................. 1.00
      Relative Kinematic Viscosity ...... 1.00
      Relative Chemical Diffusivity ..... 1.00
      Demand Multiplier ................. 1.00
      Total Duration .................... 0.00 hrs
      Reporting Criteria:
         Selected Nodes
         No Links
         with Velocity above 3.00 m/s
   
  Analysis begun Tue Jun  1 20:54:49 2021

   
  Node Results:
  ----------------------------------------------
                     Demand      Head  Pressure
  Node                  L/s         m         m
  ----------------------------------------------
  213               0.000000e+00   4.432573e+02   6.035733e+01
  241               2.800000e+01   4.396688e+02   6.642879e+01
  245               0.000000e+00   4.401878e+02   9.006783e+01
  256               3.450000e+01   4.448228e+02   7.861282e+01
  276               0.000000e+00   4.432926e+02   6.120261e+01
  277               2.600000e+01   4.414734e+02   6.121341e+01
  286               1.800000e+01   4.308854e+02   4.905544e+01
  296               2.600000e+01   4.335380e+02   5.237796e+01
   
   
  Link Results:
  --------------------------------------------------------
                       Flow  Velocity  Headloss  F-Factor
  Link                  L/s       m/s    /1000m          
  --------------------------------------------------------
  1                   40.70    1.0146      3.53    0.0152
  10                  28.00    0.2721      0.19    0.0180
  100                 24.00    0.5983      1.36    0.0169
  102                 71.50    1.1208      3.21    0.0143
  103                 50.00    1.2464      5.13    0.0147
  104                 62.30    0.9766      2.50    0.0147
  105                 23.00    0.5733      1.26    0.0170
  106                 78.10    1.9469     11.55    0.0135
  107                216.10    1.3467      2.60    0.0127
  11                  28.00    0.6980      1.80    0.0164
  112                436.40    1.6071      2.64    0.0118
  113                 40.70    0.6380      1.16    0.0159
  117                661.30    1.7892      2.69    0.0113
  118                462.40    1.7028      2.94    0.0117
  119                503.10    1.8527      3.43    0.0115
  12                   0.00    0.0000      0.00    0.0000
  120                 36.00    0.5643      0.93    0.0163
  122                  0.00    0.0000      0.00    0.0000
  123                 63.60    0.9970      2.60    0.0146
  126                 18.00    0.4487      0.81    0.0179
  127                 18.00    0.4487      0.81    0.0179
  128                408.40    2.0390      4.88    0.0116
  131                372.40    2.3208      7.05    0.0116
  132                408.40    2.0390      4.88    0.0116
  134                 23.00    1.4122     11.01    0.0156
  136                 85.30    0.8288      1.40    0.0145
  137                 23.00    1.4122     11.02    0.0156
  138                 51.00    1.2713      5.32    0.0146
  139                  0.00    0.0000      0.00    0.0000
  14                  73.00    1.1443      3.34    0.0143
  142                -43.00    2.6403     34.29    0.0139
  143                  0.00    0.0000      0.00    0.0000
  144                 26.00    1.0105      4.58    0.0159
  145                 81.60    0.7928      1.29    0.0146
  148                180.10    1.1224      1.87    0.0131
  149                198.10    1.2346      2.22    0.0129
  15                  86.00    1.3481      4.49    0.0138
  150                 45.60    0.7148      1.42    0.0156
  151                 21.60    1.3263      9.83    0.0158
  156                  0.00    0.0000      0.00    0.0000
  16                  40.00    0.9971      3.43    0.0153
  160                 66.30    1.0393      2.80    0.0145
  162                 21.00    0.3292      0.35    0.0182
  171                 26.00    1.0105      4.58    0.0159
  172                 26.00    0.4076      0.52    0.0174
  175                  0.00    0.0000      0.00    0.0000
  181                 71.20    1.7749      9.76    0.0137
  183                  0.00    0.0000      0.00    0.0000
  184                 18.00    0.2822      0.27    0.0188
  185                 18.00    0.2822      0.27    0.0188
  19                  50.00    1.9432     14.97    0.0141
  2                  683.30    1.8487      2.85    0.0112
  20                   0.00    0.0000      0.00    0.0000
  21                  18.00    0.6996      2.36    0.0171
  22                 343.40    1.2646      1.70    0.0123
  23                  40.00    1.5546      9.98    0.0147
  24                  82.00    1.2854      4.12    0.0140
  25                  43.00    0.6740      1.28    0.0158
  26                 251.80    1.2571      2.01    0.0126
  27                  18.00    0.6996      2.36    0.0171
  28                 105.40    1.0241      2.05    0.0139
  29                 322.30    0.8720      0.72    0.0128
  3                   84.30    1.3214      4.33    0.0139
  30                  79.00    1.2384      3.85    0.0140
  31                 879.20    1.4357      1.34    0.0112
  32                 324.80    1.6216      3.21    0.0121
  33                 356.80    0.9653      0.87    0.0125
  34                 782.20    1.6244      1.93    0.0112
  36                 140.20    2.1977     10.96    0.0127
  37                   0.00    0.0000      0.00    0.0000
  38                  18.00    0.1122      0.03    0.0207
  4                  151.80    0.9460      1.37    0.0135
  40                  18.00    0.6996      2.36    0.0171
  41                 356.80    0.9653      0.87    0.0125
  42                   0.00    0.0000      0.00    0.0000
  43                 438.80    1.1872      1.27    0.0121
  44                  41.80    1.0420      3.71    0.0152
  45                  41.80    1.6245     10.81    0.0146
  46                   0.00    0.0000      0.00    0.0000
  47                 232.50    0.8562      0.84    0.0132
  48                 211.50    0.7789      0.70    0.0134
  5                   22.00    1.3508     10.16    0.0157
  50                  18.00    0.6996      2.36    0.0171
  51                 861.20    1.7885      2.30    0.0111
  52                  18.00    1.1052      7.08    0.0164
  53                  92.80    0.4633      0.33    0.0152
  54                1757.02    1.6176      1.19    0.0105
  56                  50.00    0.7838      1.68    0.0153
  57                 109.50    1.7165      6.98    0.0132
  58                   0.00    0.0000      0.00    0.0000
  59                 109.50    1.7165      6.98    0.0132
  6                  100.00    0.6232      0.64    0.0146
  60                  24.00    0.5983      1.36    0.0169
  61                 128.30    1.2466      2.94    0.0134
  62                 105.40    1.0241      2.05    0.0139
  63                1052.62    1.7189      1.86    0.0109
  64                   0.00    0.0000      0.00    0.0000
  65                  18.00    1.1052      7.08    0.0164
  66                 173.42    0.8658      1.02    0.0135
  67                 105.40    1.0241      2.05    0.0139
  68                  26.00    1.5965     13.75    0.0153
  69                 150.30    0.9367      1.34    0.0136
  7                   18.60    0.2916      0.28    0.0187
  70                  45.30    0.7101      1.41    0.0156
  71                  26.80    1.6456     14.53    0.0152
  72                  18.00    1.1052      7.08    0.0164
  73                   0.00    0.0000      0.00    0.0000
  74                1735.92    1.5982      1.16    0.0105
  76                  48.00    0.4664      0.49    0.0162
  77                   0.00    0.0000      0.00    0.0000
  78                  70.00    1.0973      3.09    0.0144
  79                  21.00    1.2894      9.35    0.0159
  8                    0.00    0.0000      0.00    0.0000
  80                 280.50    0.7589      0.56    0.0131
  81                   0.00    0.0000      0.00    0.0000
  82                  66.80    0.4163      0.31    0.0158
  83                   0.00    0.0000      0.00    0.0000
  84                 158.20    2.4798     13.67    0.0124
  86                  21.10    1.2956      9.43    0.0159
  87                  22.00    1.3508     10.16    0.0157
  88                  18.00    0.1122      0.03    0.0210
  89                  29.00    1.1271      5.57    0.0156
  9                 1866.52    1.7184      1.33    0.0104
  90                  84.30    1.3214      4.33    0.0139
  92                  26.00    0.1620      0.06    0.0189
  93                  26.00    1.5965     13.75    0.0153
  94                  30.80    0.1919      0.08    0.0184
  95                  18.00    0.6996      2.36    0.0171
  96                  43.00    1.0719      3.90    0.0151
  97                  23.00    1.4122     11.02    0.0156
  98                   0.00    0.0000      0.00    0.0000
  99                  23.20    1.4245     11.19    0.0156
  55                 156.30    1.5186      4.21    0.0130
  101                 20.00    1.2280      8.56    0.0160
  108                136.30    1.3243      3.28    0.0133
  109                  0.00    0.0000      0.00    0.0000
  49                 -48.00    0.4664      0.49    0.0161
  85                -133.80    0.8339      1.09    0.0139
  91                  -0.00    0.0000      0.00    0.0000
  110                  0.00    0.0000      0.00    0.0000
  111                  0.00    0.0000      0.00    0.0000
  17                   0.00    0.0000      0.00    0.0000
  18                  18.00    1.1052      7.08    0.0164
  39                   0.00    0.0000      0.00    0.0000
  75                   0.00    0.0000      0.00    0.0000
  114                -28.00    1.0882      5.23    0.0157
   
  Analysis ended Tue Jun  1 20:54:49 2021
