  Page 1                                    Tue Jun  1 20:54:50 2021

  ******************************************************************
  *                           E P A N E T                          *
  *                   Hydraulic and Water Quality                  *
  *                   Analysis for Pipe Networks                   *
  *                         Version 2.00.12                        *
  ******************************************************************
  
  C:\Mario\Violada 
   
      Input Data File ................... /home/borja/Escritorio/nery/epanet-telecontrol/flowpath/tmp.inp
      Number of Junctions................ 146
      Number of Reservoirs............... 1
      Number of Tanks ................... 0
      Number of Pipes ................... 146
      Number of Pumps ................... 0
      Number of Valves .................. 0
      Headloss Formula .................. Darcy-Weisbach
      Hydraulic Timestep ................ 1.00 hrs
      Hydraulic Accuracy ................ 0.001000
      Status Check Frequency ............ 2
      Maximum Trials Checked ............ 10
      Damping Limit Threshold ........... 0.000000
      Maximum Trials .................... 40
      Quality Analysis .................. None
      Specific Gravity .................. 1.00
      Relative Kinematic Viscosity ...... 1.00
      Relative Chemical Diffusivity ..... 1.00
      Demand Multiplier ................. 1.00
      Total Duration .................... 0.00 hrs
      Reporting Criteria:
         Selected Nodes
         No Links
         with Velocity above 3.00 m/s
   
  Analysis begun Tue Jun  1 20:54:50 2021

   
  Node Results:
  ----------------------------------------------
                     Demand      Head  Pressure
  Node                  L/s         m         m
  ----------------------------------------------
  213               0.000000e+00   4.464217e+02   6.352172e+01
  241               0.000000e+00   4.449972e+02   7.175717e+01
  245               0.000000e+00   4.434469e+02   9.332690e+01
  256               0.000000e+00   4.480471e+02   8.183710e+01
  276               0.000000e+00   4.479658e+02   6.587577e+01
  277               2.600000e+01   4.454805e+02   6.522045e+01
  286               0.000000e+00   4.465819e+02   6.475193e+01
  296               0.000000e+00   4.463158e+02   6.515579e+01
   
   
  Link Results:
  --------------------------------------------------------
                       Flow  Velocity  Headloss  F-Factor
  Link                  L/s       m/s    /1000m          
  --------------------------------------------------------
  1                   40.70    1.0146      3.54    0.0152
  10                  39.00    0.3789      0.34    0.0168
  100                  0.00    0.0000      0.00    0.0000
  102                 24.00    0.3762      0.45    0.0177
  103                 24.00    0.5983      1.36    0.0169
  104                  0.00    0.0000      0.00    0.0000
  105                  0.00    0.0000      0.00    0.0000
  106                 33.30    0.8301      2.46    0.0158
  107                119.00    0.7416      0.88    0.0142
  11                   0.00    0.0000      0.00    0.0000
  112                224.00    0.8249      0.78    0.0132
  113                 70.70    1.1083      3.15    0.0143
  117                328.00    0.8874      0.74    0.0127
  118                224.00    0.8249      0.78    0.0132
  119                294.70    1.0853      1.29    0.0126
  12                   0.00    0.0000      0.00    0.0000
  120                 54.00    0.8465      1.93    0.0151
  122                 18.00    0.6996      2.36    0.0171
  123                 18.00    0.2822      0.27    0.0188
  126                 18.00    0.4487      0.81    0.0179
  127                 36.00    0.8974      2.83    0.0156
  128                196.00    0.9786      1.28    0.0132
  131                142.00    0.8850      1.21    0.0137
  132                196.00    0.9786      1.28    0.0132
  134                  0.00    0.0000      0.00    0.0000
  136                  0.00    0.0000      0.00    0.0000
  137                  0.00    0.0000      0.00    0.0000
  138                 23.00    0.5733      1.26    0.0170
  139                  0.00    0.0000      0.00    0.0000
  14                  22.00    0.3449      0.38    0.0180
  142                 -0.00    0.0000      0.00    0.0000
  143                 20.00    0.7773      2.85    0.0168
  144                  0.00    0.0000      0.00    0.0000
  145                 68.00    0.6607      0.93    0.0151
  148                119.00    0.7416      0.88    0.0142
  149                119.00    0.7416      0.88    0.0142
  15                  86.00    1.3481      4.49    0.0138
  150                  0.00    0.0000      0.00    0.0000
  151                  0.00    0.0000      0.00    0.0000
  156                  0.00    0.0000      0.00    0.0000
  16                  22.00    0.5484      1.17    0.0172
  160                 45.30    0.7101      1.41    0.0156
  162                  0.00    0.0000      0.00    0.0000
  171                 26.00    1.0105      4.58    0.0159
  172                 26.00    0.4076      0.52    0.0174
  175                  0.00    0.0000      0.00    0.0000
  181                 71.20    1.7749      9.76    0.0137
  183                 18.00    0.6996      2.36    0.0171
  184                  0.00    0.0000      0.00    0.0000
  185                 50.00    0.7838      1.68    0.0153
  19                  50.00    1.9432     14.97    0.0141
  2                  328.00    0.8874      0.74    0.0127
  20                   0.00    0.0000      0.00    0.0000
  21                   0.00    0.0000      0.00    0.0000
  22                 285.40    1.0510      1.21    0.0127
  23                  22.00    0.8550      3.39    0.0165
  24                  25.00    0.3919      0.48    0.0176
  25                  25.00    0.3919      0.48    0.0176
  26                 244.80    1.2222      1.91    0.0127
  27                   0.00    0.0000      0.00    0.0000
  28                  45.30    0.4401      0.45    0.0163
  29                  48.80    0.1320      0.02    0.0183
  3                   45.30    0.7101      1.41    0.0156
  30                  99.00    1.5519      5.81    0.0135
  31                 458.20    0.7482      0.40    0.0125
  32                 266.80    1.3320      2.24    0.0125
  33                  48.80    0.1320      0.02    0.0184
  34                 359.20    0.7460      0.46    0.0128
  36                  33.30    0.5220      0.81    0.0166
  37                   0.00    0.0000      0.00    0.0000
  38                   0.00    0.0000      0.00    0.0000
  4                  144.80    0.9024      1.25    0.0137
  40                   0.00    0.0000      0.00    0.0000
  41                  48.80    0.1320      0.02    0.0184
  42                  -0.00    0.0000      0.00    0.0000
  43                  73.80    0.1997      0.05    0.0168
  44                   0.00    0.0000      0.00    0.0000
  45                   0.00    0.0000      0.00    0.0000
  46                   0.00    0.0000      0.00    0.0000
  47                  48.80    0.1797      0.05    0.0178
  48                  48.80    0.1797      0.05    0.0176
  5                   22.00    1.3508     10.16    0.0157
  50                   0.00    0.0000      0.00    0.0000
  51                 458.20    0.9516      0.72    0.0123
  52                   0.00    0.0000      0.00    0.0000
  53                  48.80    0.2436      0.10    0.0172
  54                 854.62    0.7868      0.32    0.0118
  56                  70.00    1.0973      3.09    0.0144
  57                  71.20    1.1161      3.19    0.0143
  58                   0.00    0.0000      0.00    0.0000
  59                  71.20    1.1161      3.19    0.0143
  6                  100.00    0.6232      0.64    0.0146
  60                   0.00    0.0000      0.00    0.0000
  61                  45.30    0.4401      0.45    0.0163
  62                  45.30    0.4401      0.45    0.0163
  63                 526.62    0.8600      0.52    0.0122
  64                   0.00    0.0000      0.00    0.0000
  65                   0.00    0.0000      0.00    0.0000
  66                  68.42    0.3416      0.19    0.0162
  67                  45.30    0.4401      0.45    0.0163
  68                  26.00    1.5965     13.75    0.0153
  69                  45.30    0.2823      0.15    0.0171
  7                   18.60    0.2916      0.28    0.0187
  70                  45.30    0.7101      1.41    0.0156
  71                   0.00    0.0000      0.00    0.0000
  72                   0.00    0.0000      0.00    0.0000
  73                   0.00    0.0000      0.00    0.0000
  74                 854.62    0.7868      0.32    0.0118
  76                   0.00    0.0000      0.00    0.0000
  77                   0.00    0.0000      0.00    0.0000
  78                   0.00    0.0000      0.00    0.0000
  79                   0.00    0.0000      0.00    0.0000
  8                    0.00    0.0000      0.00    0.0000
  80                  48.80    0.1320      0.02    0.0183
  81                  50.00    1.2464      5.13    0.0147
  82                  48.80    0.3041      0.17    0.0168
  83                  -0.00    0.0000      0.00    0.0000
  84                  33.30    0.5220      0.81    0.0166
  86                   0.00    0.0000      0.00    0.0000
  87                  -0.00    0.0000      0.00    0.0000
  88                  18.00    0.1122      0.03    0.0210
  89                  29.00    1.1271      5.57    0.0156
  9                  925.82    0.8524      0.37    0.0117
  90                  45.30    0.7101      1.41    0.0156
  92                   0.00    0.0000      0.00    0.0000
  93                   0.00    0.0000      0.00    0.0000
  94                  30.80    0.1919      0.08    0.0186
  95                   0.00    0.0000      0.00    0.0000
  96                   0.00    0.0000      0.00    0.0000
  97                  23.00    1.4122     11.02    0.0156
  98                   0.00    0.0000      0.00    0.0000
  99                  23.20    1.4245     11.19    0.0156
  55                  23.00    0.2235      0.13    0.0188
  101                  0.00    0.0000      0.00    0.0000
  108                 23.00    0.2235      0.13    0.0188
  109                 32.00    0.7977      2.29    0.0160
  49                  -0.00    0.0000      0.00    0.0000
  85                -144.80    0.9024      1.25    0.0137
  91                 -39.00    0.6113      1.07    0.0161
  110                  0.00    0.0000      0.00    0.0000
  111                  0.00    0.0000      0.00    0.0000
  17                  32.00    1.2437      6.66    0.0153
  18                   0.00    0.0000      0.00    0.0000
  39                   0.00    0.0000      0.00    0.0000
  75                   0.00    0.0000      0.00    0.0000
  114                 -0.00    0.0000      0.00    0.0000
   
  Analysis ended Tue Jun  1 20:54:50 2021
