  Page 1                                    Tue Jun  1 20:54:55 2021

  ******************************************************************
  *                           E P A N E T                          *
  *                   Hydraulic and Water Quality                  *
  *                   Analysis for Pipe Networks                   *
  *                         Version 2.00.12                        *
  ******************************************************************
  
  C:\Mario\Violada 
   
      Input Data File ................... /home/borja/Escritorio/nery/epanet-telecontrol/flowpath/tmp.inp
      Number of Junctions................ 146
      Number of Reservoirs............... 1
      Number of Tanks ................... 0
      Number of Pipes ................... 146
      Number of Pumps ................... 0
      Number of Valves .................. 0
      Headloss Formula .................. Darcy-Weisbach
      Hydraulic Timestep ................ 1.00 hrs
      Hydraulic Accuracy ................ 0.001000
      Status Check Frequency ............ 2
      Maximum Trials Checked ............ 10
      Damping Limit Threshold ........... 0.000000
      Maximum Trials .................... 40
      Quality Analysis .................. None
      Specific Gravity .................. 1.00
      Relative Kinematic Viscosity ...... 1.00
      Relative Chemical Diffusivity ..... 1.00
      Demand Multiplier ................. 1.00
      Total Duration .................... 0.00 hrs
      Reporting Criteria:
         Selected Nodes
         No Links
         with Velocity above 3.00 m/s
   
  Analysis begun Tue Jun  1 20:54:55 2021

   
  Node Results:
  ----------------------------------------------
                     Demand      Head  Pressure
  Node                  L/s         m         m
  ----------------------------------------------
  213               0.000000e+00   4.479046e+02   6.500464e+01
  241               0.000000e+00   4.477366e+02   7.449657e+01
  245               0.000000e+00   4.429872e+02   9.286713e+01
  256               0.000000e+00   4.487387e+02   8.252867e+01
  276               0.000000e+00   4.486949e+02   6.660496e+01
  277               0.000000e+00   4.488117e+02   6.855167e+01
  286               0.000000e+00   4.488312e+02   6.700121e+01
  296               2.600000e+01   4.382817e+02   5.712168e+01
   
   
  Link Results:
  --------------------------------------------------------
                       Flow  Velocity  Headloss  F-Factor
  Link                  L/s       m/s    /1000m          
  --------------------------------------------------------
  1                   23.20    0.5783      1.28    0.0170
  10                  35.00    0.3401      0.28    0.0172
  100                  0.00    0.0000      0.00    0.0000
  102                 44.00    0.6897      1.33    0.0157
  103                 44.00    1.0968      4.07    0.0150
  104                 19.30    0.3025      0.30    0.0185
  105                 47.00    1.1716      4.59    0.0148
  106                  0.00    0.0000      0.00    0.0000
  107                 80.00    0.4986      0.43    0.0153
  11                   0.00    0.0000      0.00    0.0000
  112                164.30    0.6051      0.44    0.0140
  113                 23.20    0.3637      0.42    0.0178
  117                187.50    0.5073      0.27    0.0141
  118                164.30    0.6051      0.44    0.0140
  119                187.50    0.6905      0.57    0.0137
  12                   0.00    0.0000      0.00    0.0000
  120                 18.00    0.2822      0.27    0.0188
  122                 18.00    0.6996      2.36    0.0171
  123                  0.00    0.0000      0.00    0.0000
  126                 18.00    0.4487      0.81    0.0179
  127                 18.00    0.4487      0.81    0.0179
  128                164.30    0.8203      0.92    0.0136
  131                146.30    0.9118      1.28    0.0137
  132                164.30    0.8203      0.92    0.0136
  134                  0.00    0.0000      0.00    0.0000
  136                 66.30    0.6442      0.89    0.0152
  137                 23.00    1.4122     11.02    0.0156
  138                  0.00    0.0000      0.00    0.0000
  139                  0.00    0.0000      0.00    0.0000
  14                   0.00    0.0000      0.00    0.0000
  142                 -0.00    0.0000      0.00    0.0000
  143                  0.00    0.0000      0.00    0.0000
  144                 44.00    1.7100     11.86    0.0144
  145                 18.00    0.1749      0.09    0.0198
  148                 62.00    0.3864      0.27    0.0160
  149                 62.00    0.3864      0.27    0.0160
  15                  20.00    0.3135      0.32    0.0184
  150                  0.00    0.0000      0.00    0.0000
  151                  0.00    0.0000      0.00    0.0000
  156                  0.00    0.0000      0.00    0.0000
  16                   0.00    0.0000      0.00    0.0000
  160                  0.00    0.0000      0.00    0.0000
  162                  0.00    0.0000      0.00    0.0000
  171                  0.00    0.0000      0.00    0.0000
  172                  0.00    0.0000      0.00    0.0000
  175                  0.00    0.0000      0.00    0.0000
  181                  0.00    0.0000      0.00    0.0000
  183                 18.00    0.6996      2.36    0.0171
  184                 18.00    0.2822      0.27    0.0188
  185                 18.00    0.2822      0.27    0.0188
  19                   0.00    0.0000      0.00    0.0000
  2                  187.50    0.5073      0.27    0.0141
  20                   0.00    0.0000      0.00    0.0000
  21                   0.00    0.0000      0.00    0.0000
  22                 155.00    0.5708      0.40    0.0142
  23                   0.00    0.0000      0.00    0.0000
  24                   0.00    0.0000      0.00    0.0000
  25                   0.00    0.0000      0.00    0.0000
  26                 155.00    0.7739      0.83    0.0138
  27                   0.00    0.0000      0.00    0.0000
  28                  28.40    0.2759      0.19    0.0180
  29                  48.70    0.1318      0.02    0.0184
  3                    0.00    0.0000      0.00    0.0000
  30                   0.00    0.0000      0.00    0.0000
  31                 203.70    0.3326      0.09    0.0145
  32                 155.00    0.7739      0.83    0.0138
  33                  48.70    0.1318      0.02    0.0183
  34                 203.70    0.4230      0.17    0.0142
  36                   0.00    0.0000      0.00    0.0000
  37                   0.00    0.0000      0.00    0.0000
  38                   0.00    0.0000      0.00    0.0000
  4                   55.00    0.3428      0.22    0.0164
  40                   0.00    0.0000      0.00    0.0000
  41                  48.70    0.1318      0.02    0.0183
  42                   0.00    0.0000      0.00    0.0000
  43                  48.70    0.1318      0.02    0.0183
  44                   0.00    0.0000      0.00    0.0000
  45                   0.00    0.0000      0.00    0.0000
  46                   0.00    0.0000      0.00    0.0000
  47                  48.70    0.1793      0.05    0.0177
  48                  48.70    0.1793      0.05    0.0179
  5                   -0.00    0.0000      0.00    0.0000
  50                   0.00    0.0000      0.00    0.0000
  51                 203.70    0.4230      0.17    0.0142
  52                   0.00    0.0000      0.00    0.0000
  53                   0.00    0.0000      0.00    0.0000
  54                 419.60    0.3863      0.09    0.0134
  56                   0.00    0.0000      0.00    0.0000
  57                  38.30    0.6004      1.04    0.0161
  58                   0.00    0.0000      0.00    0.0000
  59                  38.30    0.6004      1.04    0.0161
  6                  100.00    0.6232      0.64    0.0146
  60                   0.00    0.0000      0.00    0.0000
  61                  28.40    0.2759      0.19    0.0180
  62                   0.00    0.0000      0.00    0.0000
  63                 232.10    0.3790      0.12    0.0142
  64                  28.40    1.7438     16.14    0.0150
  65                   0.00    0.0000      0.00    0.0000
  66                  28.40    0.1418      0.04    0.0196
  67                   0.00    0.0000      0.00    0.0000
  68                   0.00    0.0000      0.00    0.0000
  69                  28.40    0.1770      0.07    0.0188
  7                    0.00    0.0000      0.00    0.0000
  70                   0.00    0.0000      0.00    0.0000
  71                   0.00    0.0000      0.00    0.0000
  72                  -0.00    0.0000      0.00    0.0000
  73                   0.00    0.0000      0.00    0.0000
  74                 419.60    0.3863      0.09    0.0137
  76                   0.00    0.0000      0.00    0.0000
  77                   0.00    0.0000      0.00    0.0000
  78                   0.00    0.0000      0.00    0.0000
  79                   0.00    0.0000      0.00    0.0000
  8                   20.00    1.2280      8.56    0.0160
  80                  48.70    0.1318      0.02    0.0184
  81                   0.00    0.0000      0.00    0.0000
  82                   0.00    0.0000      0.00    0.0000
  83                  -0.00    0.0000      0.00    0.0000
  84                   0.00    0.0000      0.00    0.0000
  86                   0.00    0.0000      0.00    0.0000
  87                   0.00    0.0000      0.00    0.0000
  88                   0.00    0.0000      0.00    0.0000
  89                   0.00    0.0000      0.00    0.0000
  9                  457.90    0.4216      0.10    0.0131
  90                   0.00    0.0000      0.00    0.0000
  92                   0.00    0.0000      0.00    0.0000
  93                  26.00    1.5965     13.75    0.0153
  94                   0.00    0.0000      0.00    0.0000
  95                   0.00    0.0000      0.00    0.0000
  96                   0.00    0.0000      0.00    0.0000
  97                   0.00    0.0000      0.00    0.0000
  98                   0.00    0.0000      0.00    0.0000
  99                  23.20    1.4245     11.19    0.0156
  55                  66.30    0.6442      0.89    0.0152
  101                  0.00    0.0000      0.00    0.0000
  108                 66.30    0.6442      0.89    0.0152
  109                  0.00    0.0000      0.00    0.0000
  49                  -0.00    0.0000      0.00    0.0000
  85                 -55.00    0.3428      0.22    0.0164
  91                   0.00    0.0000      0.00    0.0000
  110                  0.00    0.0000      0.00    0.0000
  111                 20.00    1.2280      8.56    0.0160
  17                  -0.00    0.0000      0.00    0.0000
  18                   0.00    0.0000      0.00    0.0000
  39                   0.00    0.0000      0.00    0.0000
  75                   0.00    0.0000      0.00    0.0000
  114                 -0.00    0.0000      0.00    0.0000
   
  Analysis ended Tue Jun  1 20:54:55 2021
