  Page 1                                    Tue Jun  1 20:54:55 2021

  ******************************************************************
  *                           E P A N E T                          *
  *                   Hydraulic and Water Quality                  *
  *                   Analysis for Pipe Networks                   *
  *                         Version 2.00.12                        *
  ******************************************************************
  
  C:\Mario\Violada 
   
      Input Data File ................... /home/borja/Escritorio/nery/epanet-telecontrol/flowpath/tmp.inp
      Number of Junctions................ 146
      Number of Reservoirs............... 1
      Number of Tanks ................... 0
      Number of Pipes ................... 146
      Number of Pumps ................... 0
      Number of Valves .................. 0
      Headloss Formula .................. Darcy-Weisbach
      Hydraulic Timestep ................ 1.00 hrs
      Hydraulic Accuracy ................ 0.001000
      Status Check Frequency ............ 2
      Maximum Trials Checked ............ 10
      Damping Limit Threshold ........... 0.000000
      Maximum Trials .................... 40
      Quality Analysis .................. None
      Specific Gravity .................. 1.00
      Relative Kinematic Viscosity ...... 1.00
      Relative Chemical Diffusivity ..... 1.00
      Demand Multiplier ................. 1.00
      Total Duration .................... 0.00 hrs
      Reporting Criteria:
         Selected Nodes
         No Links
         with Velocity above 3.00 m/s
   
  Analysis begun Tue Jun  1 20:54:55 2021

   
  Node Results:
  ----------------------------------------------
                     Demand      Head  Pressure
  Node                  L/s         m         m
  ----------------------------------------------
  213               0.000000e+00   4.470488e+02   6.414884e+01
  241               0.000000e+00   4.459586e+02   7.271861e+01
  245               0.000000e+00   4.442376e+02   9.411759e+01
  256               3.450000e+01   4.472568e+02   8.104683e+01
  276               2.000000e+01   4.446146e+02   6.252461e+01
  277               2.600000e+01   4.463279e+02   6.606796e+01
  286               0.000000e+00   4.410651e+02   5.923510e+01
  296               0.000000e+00   4.473085e+02   6.614854e+01
   
   
  Link Results:
  --------------------------------------------------------
                       Flow  Velocity  Headloss  F-Factor
  Link                  L/s       m/s    /1000m          
  --------------------------------------------------------
  1                   17.50    0.4362      0.77    0.0180
  10                   0.00    0.0000      0.00    0.0000
  100                  0.00    0.0000      0.00    0.0000
  102                 21.50    0.3370      0.37    0.0181
  103                  0.00    0.0000      0.00    0.0000
  104                  0.00    0.0000      0.00    0.0000
  105                  0.00    0.0000      0.00    0.0000
  106                 60.10    1.4982      7.17    0.0142
  107                 98.50    0.6139      0.62    0.0147
  11                   0.00    0.0000      0.00    0.0000
  112                185.50    0.6831      0.55    0.0137
  113                 17.50    0.2743      0.25    0.0189
  117                328.20    0.8880      0.74    0.0127
  118                211.50    0.7789      0.70    0.0134
  119                229.00    0.8433      0.81    0.0132
  12                   0.00    0.0000      0.00    0.0000
  120                 36.00    0.5643      0.93    0.0163
  122                 18.00    0.6996      2.36    0.0171
  123                 18.00    0.2822      0.27    0.0188
  126                 18.00    0.4487      0.81    0.0179
  127                 36.00    0.8974      2.83    0.0156
  128                157.50    0.7863      0.86    0.0137
  131                121.50    0.7572      0.92    0.0142
  132                157.50    0.7863      0.86    0.0137
  134                  0.00    0.0000      0.00    0.0000
  136                  0.00    0.0000      0.00    0.0000
  137                  0.00    0.0000      0.00    0.0000
  138                 23.00    0.5733      1.26    0.0170
  139                  0.00    0.0000      0.00    0.0000
  14                  22.00    0.3449      0.38    0.0180
  142                 -0.00    0.0000      0.00    0.0000
  143                 20.00    0.7773      2.85    0.0168
  144                  0.00    0.0000      0.00    0.0000
  145                 50.00    0.4858      0.53    0.0160
  148                 98.50    0.6139      0.62    0.0147
  149                 98.50    0.6139      0.62    0.0147
  15                  86.00    1.3481      4.49    0.0138
  150                  0.00    0.0000      0.00    0.0000
  151                  0.00    0.0000      0.00    0.0000
  156                  0.00    0.0000      0.00    0.0000
  16                  22.00    0.5484      1.17    0.0172
  160                 26.00    0.4076      0.52    0.0174
  162                  0.00    0.0000      0.00    0.0000
  171                 26.00    1.0105      4.58    0.0159
  172                 26.00    0.4076      0.52    0.0174
  175                  0.00    0.0000      0.00    0.0000
  181                 -0.00    0.0000      0.00    0.0000
  183                 18.00    0.6996      2.36    0.0171
  184                  0.00    0.0000      0.00    0.0000
  185                 32.00    0.5016      0.75    0.0167
  19                  50.00    1.9432     14.97    0.0141
  2                  350.20    0.9475      0.84    0.0126
  20                  -0.00    0.0000      0.00    0.0000
  21                  18.00    0.6996      2.36    0.0171
  22                 226.60    0.8345      0.80    0.0132
  23                  22.00    0.8550      3.39    0.0165
  24                  57.00    0.8935      2.13    0.0149
  25                  18.00    0.2822      0.27    0.0188
  26                 186.00    0.9286      1.16    0.0133
  27                  18.00    0.6996      2.36    0.0171
  28                  26.00    0.2526      0.16    0.0183
  29                 182.80    0.4946      0.26    0.0141
  3                   26.00    0.4076      0.52    0.0174
  30                  99.00    1.5519      5.81    0.0135
  31                 599.90    0.9796      0.66    0.0120
  32                 208.00    1.0385      1.42    0.0131
  33                 217.30    0.5879      0.35    0.0137
  34                 500.90    1.0402      0.85    0.0121
  36                  99.20    1.5550      5.83    0.0135
  37                   0.00    0.0000      0.00    0.0000
  38                  20.00    0.1246      0.04    0.0204
  4                   86.00    0.5360      0.49    0.0151
  40                  20.00    0.7773      2.85    0.0168
  41                 217.30    0.5879      0.35    0.0137
  42                   0.00    0.0000      0.00    0.0000
  43                 274.30    0.7421      0.54    0.0131
  44                   0.00    0.0000      0.00    0.0000
  45                  -0.00    0.0000      0.00    0.0000
  46                   0.00    0.0000      0.00    0.0000
  47                 164.80    0.6069      0.45    0.0140
  48                 164.80    0.6069      0.45    0.0140
  5                   22.00    1.3508     10.16    0.0157
  50                   0.00    0.0000      0.00    0.0000
  51                 599.90    1.2458      1.18    0.0117
  52                   0.00    0.0000      0.00    0.0000
  53                  94.80    0.4733      0.34    0.0151
  54                 976.10    0.8986      0.40    0.0116
  56                  70.00    1.0973      3.09    0.0144
  57                   0.00    0.0000      0.00    0.0000
  58                  -0.00    0.0000      0.00    0.0000
  59                  -0.00    0.0000      0.00    0.0000
  6                  100.00    0.6232      0.64    0.0146
  60                   0.00    0.0000      0.00    0.0000
  61                  26.00    0.2526      0.16    0.0183
  62                  26.00    0.2526      0.16    0.0183
  63                 625.90    1.0221      0.72    0.0119
  64                   0.00    0.0000      0.00    0.0000
  65                  18.00    1.1052      7.08    0.0164
  66                  26.00    0.1298      0.03    0.0190
  67                  26.00    0.2526      0.16    0.0183
  68                  26.00    1.5965     13.75    0.0153
  69                  26.00    0.1620      0.06    0.0192
  7                   18.60    0.2916      0.28    0.0187
  70                  26.00    0.4076      0.52    0.0174
  71                  26.80    1.6456     14.53    0.0152
  72                   0.00    0.0000      0.00    0.0000
  73                   0.00    0.0000      0.00    0.0000
  74                 976.10    0.8986      0.40    0.0116
  76                  18.00    0.1749      0.09    0.0198
  77                   0.00    0.0000      0.00    0.0000
  78                  70.00    1.0973      3.09    0.0144
  79                   0.00    0.0000      0.00    0.0000
  8                    0.00    0.0000      0.00    0.0000
  80                 182.80    0.4946      0.26    0.0141
  81                  32.00    0.7977      2.29    0.0160
  82                  68.80    0.4288      0.33    0.0157
  83                  20.00    1.2280      8.56    0.0160
  84                  99.20    1.5550      5.83    0.0135
  86                   0.00    0.0000      0.00    0.0000
  87                   0.00    0.0000      0.00    0.0000
  88                  18.00    0.1122      0.03    0.0210
  89                  29.00    1.1271      5.57    0.0156
  9                  976.10    0.8986      0.40    0.0116
  90                  26.00    0.4076      0.52    0.0174
  92                  26.00    0.1620      0.06    0.0195
  93                   0.00    0.0000      0.00    0.0000
  94                  30.80    0.1919      0.08    0.0186
  95                   0.00    0.0000      0.00    0.0000
  96                   0.00    0.0000      0.00    0.0000
  97                  23.00    1.4122     11.02    0.0156
  98                   0.00    0.0000      0.00    0.0000
  99                   0.00    0.0000      0.00    0.0000
  55                  23.00    0.2235      0.13    0.0188
  101                 -0.00    0.0000      0.00    0.0000
  108                 23.00    0.2235      0.13    0.0188
  109                 32.00    0.7977      2.29    0.0160
  49                 -18.00    0.1749      0.09    0.0198
  85                 -86.00    0.5360      0.49    0.0151
  91                  -0.00    0.0000      0.00    0.0000
  110                  0.00    0.0000      0.00    0.0000
  111                  0.00    0.0000      0.00    0.0000
  17                  32.00    1.2437      6.66    0.0153
  18                   0.00    0.0000      0.00    0.0000
  39                   0.00    0.0000      0.00    0.0000
  75                  -0.00    0.0000      0.00    0.0000
  114                 -0.00    0.0000      0.00    0.0000
   
  Analysis ended Tue Jun  1 20:54:55 2021
