  Page 1                                    Tue Jun  1 20:54:56 2021

  ******************************************************************
  *                           E P A N E T                          *
  *                   Hydraulic and Water Quality                  *
  *                   Analysis for Pipe Networks                   *
  *                         Version 2.00.12                        *
  ******************************************************************
  
  C:\Mario\Violada 
   
      Input Data File ................... /home/borja/Escritorio/nery/epanet-telecontrol/flowpath/tmp.inp
      Number of Junctions................ 146
      Number of Reservoirs............... 1
      Number of Tanks ................... 0
      Number of Pipes ................... 146
      Number of Pumps ................... 0
      Number of Valves .................. 0
      Headloss Formula .................. Darcy-Weisbach
      Hydraulic Timestep ................ 1.00 hrs
      Hydraulic Accuracy ................ 0.001000
      Status Check Frequency ............ 2
      Maximum Trials Checked ............ 10
      Damping Limit Threshold ........... 0.000000
      Maximum Trials .................... 40
      Quality Analysis .................. None
      Specific Gravity .................. 1.00
      Relative Kinematic Viscosity ...... 1.00
      Relative Chemical Diffusivity ..... 1.00
      Demand Multiplier ................. 1.00
      Total Duration .................... 0.00 hrs
      Reporting Criteria:
         Selected Nodes
         No Links
         with Velocity above 3.00 m/s
   
  Analysis begun Tue Jun  1 20:54:56 2021

   
  Node Results:
  ----------------------------------------------
                     Demand      Head  Pressure
  Node                  L/s         m         m
  ----------------------------------------------
  213               0.000000e+00   4.478622e+02   6.496215e+01
  241               0.000000e+00   4.480707e+02   7.483073e+01
  245               0.000000e+00   4.485314e+02   9.841139e+01
  256               0.000000e+00   4.487924e+02   8.258241e+01
  276               2.000000e+01   4.466836e+02   6.459358e+01
  277               2.600000e+01   4.462184e+02   6.595834e+01
  286               1.800000e+01   4.448449e+02   6.301492e+01
  296               0.000000e+00   4.445938e+02   6.343374e+01
   
   
  Link Results:
  --------------------------------------------------------
                       Flow  Velocity  Headloss  F-Factor
  Link                  L/s       m/s    /1000m          
  --------------------------------------------------------
  1                    0.00    0.0000      0.00    0.0000
  10                  55.00    0.5344      0.63    0.0157
  100                  0.00    0.0000      0.00    0.0000
  102                 63.50    0.9954      2.59    0.0146
  103                 42.00    1.0470      3.74    0.0151
  104                 19.30    0.3025      0.30    0.0185
  105                 24.00    0.5983      1.36    0.0169
  106                 18.00    0.4487      0.81    0.0179
  107                 99.50    0.6201      0.64    0.0147
  11                  20.00    0.4986      0.98    0.0175
  112                160.80    0.5922      0.43    0.0141
  113                  0.00    0.0000      0.00    0.0000
  117                204.80    0.5541      0.32    0.0138
  118                186.80    0.6879      0.56    0.0137
  119                186.80    0.6879      0.56    0.0137
  12                   0.00    0.0000      0.00    0.0000
  120                 18.00    0.2822      0.27    0.0188
  122                 18.00    0.6996      2.36    0.0171
  123                 18.00    0.2822      0.27    0.0187
  126                 18.00    0.4487      0.81    0.0179
  127                 18.00    0.4487      0.81    0.0179
  128                160.80    0.8028      0.89    0.0137
  131                142.80    0.8899      1.22    0.0137
  132                160.80    0.8028      0.89    0.0137
  134                  0.00    0.0000      0.00    0.0000
  136                 43.30    0.4207      0.41    0.0165
  137                  0.00    0.0000      0.00    0.0000
  138                  0.00    0.0000      0.00    0.0000
  139                  0.00    0.0000      0.00    0.0000
  14                   0.00    0.0000      0.00    0.0000
  142                 -0.00    0.0000      0.00    0.0000
  143                  0.00    0.0000      0.00    0.0000
  144                 18.00    0.6996      2.36    0.0171
  145                 18.00    0.1749      0.09    0.0198
  148                 81.50    0.5079      0.44    0.0152
  149                 81.50    0.5079      0.44    0.0152
  15                   0.00    0.0000      0.00    0.0000
  150                  0.00    0.0000      0.00    0.0000
  151                  0.00    0.0000      0.00    0.0000
  156                  0.00    0.0000      0.00    0.0000
  16                   0.00    0.0000      0.00    0.0000
  160                 26.00    0.4076      0.52    0.0174
  162                  0.00    0.0000      0.00    0.0000
  171                 26.00    1.0105      4.58    0.0159
  172                 26.00    0.4076      0.52    0.0174
  175                  0.00    0.0000      0.00    0.0000
  181                 -0.00    0.0000      0.00    0.0000
  183                 18.00    0.6996      2.36    0.0171
  184                  0.00    0.0000      0.00    0.0000
  185                  0.00    0.0000      0.00    0.0000
  19                  50.00    1.9432     14.97    0.0141
  2                  204.80    0.5541      0.32    0.0138
  20                  -0.00    0.0000      0.00    0.0000
  21                  18.00    0.6996      2.36    0.0171
  22                  55.00    0.2025      0.06    0.0173
  23                   0.00    0.0000      0.00    0.0000
  24                  18.00    0.2822      0.27    0.0188
  25                  18.00    0.2822      0.27    0.0188
  26                  55.00    0.2746      0.13    0.0168
  27                  18.00    0.6996      2.36    0.0171
  28                  75.50    0.7336      1.12    0.0148
  29                  20.00    0.0541      0.00    0.0226
  3                   26.00    0.4076      0.52    0.0174
  30                  50.00    0.7838      1.68    0.0153
  31                 163.00    0.2662      0.06    0.0151
  32                  55.00    0.2746      0.13    0.0168
  33                  40.00    0.1082      0.02    0.0192
  34                 113.00    0.2347      0.06    0.0159
  36                  18.00    0.2822      0.27    0.0188
  37                   0.00    0.0000      0.00    0.0000
  38                  20.00    0.1246      0.04    0.0204
  4                   55.00    0.3428      0.22    0.0164
  40                  20.00    0.7773      2.85    0.0168
  41                  20.00    0.0541      0.00    0.0223
  42                  20.00    1.2280      8.56    0.0160
  43                  58.00    0.1569      0.03    0.0177
  44                   0.00    0.0000      0.00    0.0000
  45                  -0.00    0.0000      0.00    0.0000
  46                  20.00    0.4986      0.98    0.0175
  47                  20.00    0.0737      0.01    0.0217
  48                  20.00    0.0737      0.01    0.0207
  5                   -0.00    0.0000      0.00    0.0000
  50                   0.00    0.0000      0.00    0.0000
  51                 163.00    0.3385      0.11    0.0150
  52                   0.00    0.0000      0.00    0.0000
  53                  20.00    0.0999      0.02    0.0209
  54                 465.30    0.4284      0.10    0.0131
  56                  50.00    0.7838      1.68    0.0153
  57                   0.00    0.0000      0.00    0.0000
  58                   0.00    0.0000      0.00    0.0000
  59                   0.00    0.0000      0.00    0.0000
  6                    0.00    0.0000      0.00    0.0000
  60                   0.00    0.0000      0.00    0.0000
  61                  75.50    0.7336      1.12    0.0148
  62                  47.10    0.4576      0.48    0.0162
  63                 260.50    0.4254      0.14    0.0139
  64                  28.40    1.7438     16.14    0.0150
  65                   0.00    0.0000      0.00    0.0000
  66                  97.50    0.4868      0.36    0.0150
  67                  47.10    0.4576      0.48    0.0162
  68                  26.00    1.5965     13.75    0.0153
  69                  97.50    0.6076      0.61    0.0147
  7                    0.00    0.0000      0.00    0.0000
  70                  26.00    0.4076      0.52    0.0174
  71                   0.00    0.0000      0.00    0.0000
  72                  18.00    1.1052      7.08    0.0164
  73                   0.00    0.0000      0.00    0.0000
  74                 465.30    0.4284      0.10    0.0129
  76                   0.00    0.0000      0.00    0.0000
  77                   0.00    0.0000      0.00    0.0000
  78                   0.00    0.0000      0.00    0.0000
  79                   0.00    0.0000      0.00    0.0000
  8                    0.00    0.0000      0.00    0.0000
  80                  20.00    0.0541      0.00    0.0221
  81                   0.00    0.0000      0.00    0.0000
  82                  20.00    0.1246      0.04    0.0202
  83                  20.00    1.2280      8.56    0.0160
  84                  18.00    0.2822      0.27    0.0188
  86                  21.10    1.2956      9.43    0.0159
  87                  22.00    1.3508     10.16    0.0157
  88                   0.00    0.0000      0.00    0.0000
  89                   0.00    0.0000      0.00    0.0000
  9                  465.30    0.4284      0.10    0.0131
  90                  26.00    0.4076      0.52    0.0174
  92                   0.00    0.0000      0.00    0.0000
  93                   0.00    0.0000      0.00    0.0000
  94                   0.00    0.0000      0.00    0.0000
  95                   0.00    0.0000      0.00    0.0000
  96                   0.00    0.0000      0.00    0.0000
  97                   0.00    0.0000      0.00    0.0000
  98                   0.00    0.0000      0.00    0.0000
  99                  -0.00    0.0000      0.00    0.0000
  55                  43.30    0.4207      0.41    0.0165
  101                  0.00    0.0000      0.00    0.0000
  108                 43.30    0.4207      0.41    0.0165
  109                  0.00    0.0000      0.00    0.0000
  49                  -0.00    0.0000      0.00    0.0000
  85                 -55.00    0.3428      0.22    0.0164
  91                  -0.00    0.0000      0.00    0.0000
  110                  0.00    0.0000      0.00    0.0000
  111                  0.00    0.0000      0.00    0.0000
  17                   0.00    0.0000      0.00    0.0000
  18                   0.00    0.0000      0.00    0.0000
  39                   0.00    0.0000      0.00    0.0000
  75                   0.00    0.0000      0.00    0.0000
  114                 -0.00    0.0000      0.00    0.0000
   
  Analysis ended Tue Jun  1 20:54:56 2021
