  Page 1                                    Tue Jun  1 20:54:57 2021

  ******************************************************************
  *                           E P A N E T                          *
  *                   Hydraulic and Water Quality                  *
  *                   Analysis for Pipe Networks                   *
  *                         Version 2.00.12                        *
  ******************************************************************
  
  C:\Mario\Violada 
   
      Input Data File ................... /home/borja/Escritorio/nery/epanet-telecontrol/flowpath/tmp.inp
      Number of Junctions................ 146
      Number of Reservoirs............... 1
      Number of Tanks ................... 0
      Number of Pipes ................... 146
      Number of Pumps ................... 0
      Number of Valves .................. 0
      Headloss Formula .................. Darcy-Weisbach
      Hydraulic Timestep ................ 1.00 hrs
      Hydraulic Accuracy ................ 0.001000
      Status Check Frequency ............ 2
      Maximum Trials Checked ............ 10
      Damping Limit Threshold ........... 0.000000
      Maximum Trials .................... 40
      Quality Analysis .................. None
      Specific Gravity .................. 1.00
      Relative Kinematic Viscosity ...... 1.00
      Relative Chemical Diffusivity ..... 1.00
      Demand Multiplier ................. 1.00
      Total Duration .................... 0.00 hrs
      Reporting Criteria:
         Selected Nodes
         No Links
         with Velocity above 3.00 m/s
   
  Analysis begun Tue Jun  1 20:54:57 2021

   
  Node Results:
  ----------------------------------------------
                     Demand      Head  Pressure
  Node                  L/s         m         m
  ----------------------------------------------
  213               0.000000e+00   4.481469e+02   6.524686e+01
  241               0.000000e+00   4.413140e+02   6.807397e+01
  245               0.000000e+00   4.406385e+02   9.051855e+01
  256               0.000000e+00   4.480651e+02   8.185512e+01
  276               0.000000e+00   4.479513e+02   6.586134e+01
  277               0.000000e+00   4.480178e+02   6.775783e+01
  286               0.000000e+00   4.421555e+02   6.032556e+01
  296               2.600000e+01   4.374725e+02   5.631246e+01
   
   
  Link Results:
  --------------------------------------------------------
                       Flow  Velocity  Headloss  F-Factor
  Link                  L/s       m/s    /1000m          
  --------------------------------------------------------
  1                    0.00    0.0000      0.00    0.0000
  10                 160.00    1.5546      4.39    0.0129
  100                  0.00    0.0000      0.00    0.0000
  102                 65.50    1.0267      2.74    0.0145
  103                 44.00    1.0968      4.07    0.0150
  104                 19.30    0.3025      0.30    0.0185
  105                 23.00    0.5733      1.26    0.0170
  106                 60.10    1.4982      7.17    0.0142
  107                115.50    0.7198      0.83    0.0142
  11                  86.00    2.1438     13.76    0.0133
  112                157.80    0.5811      0.41    0.0141
  113                  0.00    0.0000      0.00    0.0000
  117                240.90    0.6518      0.42    0.0134
  118                157.80    0.5811      0.41    0.0141
  119                157.80    0.5811      0.41    0.0141
  12                  86.00    2.1438     13.76    0.0133
  120                  0.00    0.0000      0.00    0.0000
  122                  0.00    0.0000      0.00    0.0000
  123                  0.00    0.0000      0.00    0.0000
  126                  0.00    0.0000      0.00    0.0000
  127                  0.00    0.0000      0.00    0.0000
  128                157.80    0.7878      0.86    0.0137
  131                157.80    0.9834      1.47    0.0134
  132                157.80    0.7878      0.86    0.0137
  134                 23.00    1.4122     11.01    0.0156
  136                 42.30    0.4110      0.39    0.0166
  137                 23.00    1.4122     11.02    0.0156
  138                  0.00    0.0000      0.00    0.0000
  139                  0.00    0.0000      0.00    0.0000
  14                  33.00    0.5173      0.79    0.0166
  142                 -0.00    0.0000      0.00    0.0000
  143                  0.00    0.0000      0.00    0.0000
  144                 44.00    1.7100     11.86    0.0144
  145                 32.00    0.3109      0.24    0.0175
  148                 97.50    0.6076      0.61    0.0147
  149                 97.50    0.6076      0.61    0.0147
  15                  20.00    0.3135      0.32    0.0184
  150                  0.00    0.0000      0.00    0.0000
  151                  0.00    0.0000      0.00    0.0000
  156                  0.00    0.0000      0.00    0.0000
  16                   0.00    0.0000      0.00    0.0000
  160                 21.00    0.3292      0.35    0.0182
  162                 21.00    0.3292      0.35    0.0182
  171                  0.00    0.0000      0.00    0.0000
  172                  0.00    0.0000      0.00    0.0000
  175                  0.00    0.0000      0.00    0.0000
  181                 71.20    1.7749      9.76    0.0137
  183                  0.00    0.0000      0.00    0.0000
  184                  0.00    0.0000      0.00    0.0000
  185                 32.00    0.5016      0.75    0.0167
  19                   0.00    0.0000      0.00    0.0000
  2                  240.90    0.6518      0.42    0.0134
  20                  -0.00    0.0000      0.00    0.0000
  21                   0.00    0.0000      0.00    0.0000
  22                 213.00    0.7844      0.71    0.0134
  23                   0.00    0.0000      0.00    0.0000
  24                   0.00    0.0000      0.00    0.0000
  25                   0.00    0.0000      0.00    0.0000
  26                 180.00    0.8987      1.09    0.0134
  27                   0.00    0.0000      0.00    0.0000
  28                  49.40    0.4800      0.52    0.0161
  29                 111.80    0.3025      0.11    0.0155
  3                   21.00    0.3292      0.35    0.0182
  30                   0.00    0.0000      0.00    0.0000
  31                 384.80    0.6284      0.29    0.0129
  32                 213.00    1.0634      1.48    0.0130
  33                 171.80    0.4648      0.23    0.0143
  34                 384.80    0.7991      0.53    0.0127
  36                  83.10    1.3026      4.22    0.0139
  37                   0.00    0.0000      0.00    0.0000
  38                   0.00    0.0000      0.00    0.0000
  4                  180.00    1.1218      1.86    0.0131
  40                   0.00    0.0000      0.00    0.0000
  41                 111.80    0.3025      0.11    0.0155
  42                  20.00    1.2280      8.56    0.0160
  43                 171.80    0.4648      0.23    0.0143
  44                  41.80    1.0420      3.71    0.0152
  45                  41.80    1.6245     10.81    0.0146
  46                  60.00    1.4957      7.15    0.0142
  47                  70.00    0.2578      0.09    0.0165
  48                  70.00    0.2578      0.10    0.0165
  5                    0.00    0.0000      0.00    0.0000
  50                   0.00    0.0000      0.00    0.0000
  51                 384.80    0.7991      0.53    0.0126
  52                   0.00    0.0000      0.00    0.0000
  53                   0.00    0.0000      0.00    0.0000
  54                 720.00    0.6629      0.23    0.0122
  56                   0.00    0.0000      0.00    0.0000
  57                 109.50    1.7165      6.98    0.0132
  58                  -0.00    0.0000      0.00    0.0000
  59                 109.50    1.7165      6.98    0.0132
  6                    0.00    0.0000      0.00    0.0000
  60                   0.00    0.0000      0.00    0.0000
  61                  72.30    0.7025      1.04    0.0149
  62                  21.00    0.2040      0.11    0.0192
  63                 479.10    0.7824      0.44    0.0124
  64                  28.40    1.7438     16.14    0.0150
  65                   0.00    0.0000      0.00    0.0000
  66                  94.30    0.4708      0.34    0.0151
  67                  21.00    0.2040      0.11    0.0191
  68                  -0.00    0.0000      0.00    0.0000
  69                  94.30    0.5877      0.58    0.0148
  7                    0.00    0.0000      0.00    0.0000
  70                   0.00    0.0000      0.00    0.0000
  71                  26.80    1.6456     14.53    0.0152
  72                  -0.00    0.0000      0.00    0.0000
  73                   0.00    0.0000      0.00    0.0000
  74                 720.00    0.6629      0.23    0.0122
  76                   0.00    0.0000      0.00    0.0000
  77                   0.00    0.0000      0.00    0.0000
  78                  70.00    1.0973      3.09    0.0144
  79                  -0.00    0.0000      0.00    0.0000
  8                   20.00    1.2280      8.56    0.0160
  80                  70.00    0.1894      0.05    0.0170
  81                  32.00    0.7977      2.29    0.0160
  82                   0.00    0.0000      0.00    0.0000
  83                  -0.00    0.0000      0.00    0.0000
  84                  83.10    1.3026      4.22    0.0139
  86                   0.00    0.0000      0.00    0.0000
  87                  22.00    1.3508     10.16    0.0157
  88                   0.00    0.0000      0.00    0.0000
  89                   0.00    0.0000      0.00    0.0000
  9                  829.50    0.7637      0.30    0.0119
  90                  21.00    0.3292      0.35    0.0182
  92                   0.00    0.0000      0.00    0.0000
  93                  26.00    1.5965     13.75    0.0153
  94                   0.00    0.0000      0.00    0.0000
  95                   0.00    0.0000      0.00    0.0000
  96                   0.00    0.0000      0.00    0.0000
  97                   0.00    0.0000      0.00    0.0000
  98                   0.00    0.0000      0.00    0.0000
  99                   0.00    0.0000      0.00    0.0000
  55                  42.30    0.4110      0.39    0.0166
  101                  0.00    0.0000      0.00    0.0000
  108                 42.30    0.4110      0.39    0.0166
  109                 32.00    0.7977      2.29    0.0160
  49                  -0.00    0.0000      0.00    0.0000
  85                -180.00    1.1218      1.86    0.0131
  91                 -39.00    0.6113      1.07    0.0161
  110                  0.00    0.0000      0.00    0.0000
  111                 20.00    1.2280      8.56    0.0160
  17                  32.00    1.2437      6.66    0.0153
  18                   0.00    0.0000      0.00    0.0000
  39                   0.00    0.0000      0.00    0.0000
  75                   0.00    0.0000      0.00    0.0000
  114                 -0.00    0.0000      0.00    0.0000
   
  Analysis ended Tue Jun  1 20:54:57 2021
