  Page 1                                    Tue Jun  1 20:54:57 2021

  ******************************************************************
  *                           E P A N E T                          *
  *                   Hydraulic and Water Quality                  *
  *                   Analysis for Pipe Networks                   *
  *                         Version 2.00.12                        *
  ******************************************************************
  
  C:\Mario\Violada 
   
      Input Data File ................... /home/borja/Escritorio/nery/epanet-telecontrol/flowpath/tmp.inp
      Number of Junctions................ 146
      Number of Reservoirs............... 1
      Number of Tanks ................... 0
      Number of Pipes ................... 146
      Number of Pumps ................... 0
      Number of Valves .................. 0
      Headloss Formula .................. Darcy-Weisbach
      Hydraulic Timestep ................ 1.00 hrs
      Hydraulic Accuracy ................ 0.001000
      Status Check Frequency ............ 2
      Maximum Trials Checked ............ 10
      Damping Limit Threshold ........... 0.000000
      Maximum Trials .................... 40
      Quality Analysis .................. None
      Specific Gravity .................. 1.00
      Relative Kinematic Viscosity ...... 1.00
      Relative Chemical Diffusivity ..... 1.00
      Demand Multiplier ................. 1.00
      Total Duration .................... 0.00 hrs
      Reporting Criteria:
         Selected Nodes
         No Links
         with Velocity above 3.00 m/s
   
  Analysis begun Tue Jun  1 20:54:57 2021

   
  Node Results:
  ----------------------------------------------
                     Demand      Head  Pressure
  Node                  L/s         m         m
  ----------------------------------------------
  213               0.000000e+00   4.441875e+02   6.128751e+01
  241               2.800000e+01   4.384332e+02   6.519318e+01
  245               0.000000e+00   4.406361e+02   9.051610e+01
  256               0.000000e+00   4.463124e+02   8.010236e+01
  276               0.000000e+00   4.449054e+02   6.281542e+01
  277               2.600000e+01   4.441032e+02   6.384320e+01
  286               1.800000e+01   4.312881e+02   4.945809e+01
  296               2.600000e+01   4.374232e+02   5.626316e+01
   
   
  Link Results:
  --------------------------------------------------------
                       Flow  Velocity  Headloss  F-Factor
  Link                  L/s       m/s    /1000m          
  --------------------------------------------------------
  1                   17.50    0.4362      0.77    0.0180
  10                 122.00    1.1854      2.68    0.0135
  100                 24.00    0.5983      1.36    0.0169
  102                 47.50    0.7446      1.53    0.0155
  103                 26.00    0.6481      1.57    0.0166
  104                 62.30    0.9766      2.50    0.0147
  105                 47.00    1.1716      4.59    0.0148
  106                 78.10    1.9469     11.55    0.0135
  107                152.50    0.9504      1.38    0.0135
  11                  48.00    1.1966      4.77    0.0148
  112                396.80    1.4613      2.22    0.0120
  113                 47.50    0.7446      1.53    0.0155
  117                602.50    1.6301      2.26    0.0115
  118                396.80    1.4613      2.22    0.0120
  119                444.30    1.6362      2.73    0.0118
  12                   0.00    0.0000      0.00    0.0000
  120                 36.00    0.5643      0.93    0.0163
  122                  0.00    0.0000      0.00    0.0000
  123                 42.00    0.6584      1.23    0.0158
  126                 18.00    0.4487      0.81    0.0179
  127                 36.00    0.8974      2.83    0.0156
  128                368.80    1.8413      4.05    0.0118
  131                332.80    2.0740      5.73    0.0118
  132                368.80    1.8413      4.05    0.0118
  134                 23.00    1.4122     11.02    0.0156
  136                109.30    1.0620      2.19    0.0138
  137                 23.00    1.4122     11.02    0.0156
  138                 51.00    1.2713      5.32    0.0146
  139                  0.00    0.0000      0.00    0.0000
  14                  40.00    0.6270      1.12    0.0160
  142                -43.00    2.6403     34.29    0.0139
  143                  0.00    0.0000      0.00    0.0000
  144                 26.00    1.0105      4.58    0.0159
  145                 60.00    0.5830      0.74    0.0155
  148                134.50    0.8382      1.10    0.0138
  149                134.50    0.8382      1.10    0.0138
  15                  86.00    1.3481      4.49    0.0138
  150                 24.00    0.3762      0.45    0.0177
  151                 -0.00    0.0000      0.00    0.0000
  156                 -0.00    0.0000      0.00    0.0000
  16                  40.00    0.9971      3.43    0.0153
  160                 45.30    0.7101      1.41    0.0156
  162                  0.00    0.0000      0.00    0.0000
  171                 26.00    1.0105      4.58    0.0159
  172                 26.00    0.4076      0.52    0.0175
  175                  0.00    0.0000      0.00    0.0000
  181                  0.00    0.0000      0.00    0.0000
  183                  0.00    0.0000      0.00    0.0000
  184                 18.00    0.2822      0.27    0.0188
  185                 18.00    0.2822      0.27    0.0188
  19                  50.00    1.9432     14.97    0.0141
  2                  602.50    1.6301      2.26    0.0115
  20                   0.00    0.0000      0.00    0.0000
  21                   0.00    0.0000      0.00    0.0000
  22                 285.80    1.0525      1.22    0.0127
  23                  40.00    1.5546      9.98    0.0147
  24                  25.00    0.3919      0.48    0.0176
  25                  25.00    0.3919      0.48    0.0176
  26                 245.80    1.2272      1.93    0.0127
  27                   0.00    0.0000      0.00    0.0000
  28                  94.80    0.9211      1.69    0.0142
  29                 301.30    0.8152      0.64    0.0129
  3                   45.30    0.7101      1.41    0.0156
  30                  50.00    0.7838      1.68    0.0153
  31                 680.10    1.1106      0.83    0.0117
  32                 285.80    1.4269      2.54    0.0124
  33                 301.30    0.8152      0.64    0.0129
  34                 612.10    1.2712      1.23    0.0117
  36                 140.20    2.1977     10.96    0.0127
  37                   0.00    0.0000      0.00    0.0000
  38                  18.00    0.1122      0.03    0.0208
  4                  245.80    1.5318      3.29    0.0125
  40                  18.00    0.6996      2.36    0.0171
  41                 301.30    0.8152      0.64    0.0129
  42                  -0.00    0.0000      0.00    0.0000
  43                 326.30    0.8828      0.74    0.0127
  44                  41.80    1.0420      3.71    0.0152
  45                  41.80    1.6245     10.81    0.0146
  46                   0.00    0.0000      0.00    0.0000
  47                 211.50    0.7789      0.70    0.0134
  48                 211.50    0.7789      0.70    0.0134
  5                   22.00    1.3508     10.16    0.0157
  50                  18.00    0.6996      2.36    0.0171
  51                 662.10    1.3750      1.42    0.0115
  52                  18.00    1.1052      7.08    0.0164
  53                  92.80    0.4633      0.33    0.0152
  54                1506.90    1.3873      0.90    0.0108
  56                  50.00    0.7838      1.68    0.0153
  57                   0.00    0.0000      0.00    0.0000
  58                   0.00    0.0000      0.00    0.0000
  59                   0.00    0.0000      0.00    0.0000
  6                    0.00    0.0000      0.00    0.0000
  60                  24.00    0.5983      1.36    0.0169
  61                  94.80    0.9211      1.69    0.0142
  62                  66.40    0.6451      0.89    0.0152
  63                 796.90    1.3013      1.11    0.0114
  64                  28.40    1.7438     16.14    0.0150
  65                  18.00    1.1052      7.08    0.0164
  66                 116.80    0.5831      0.50    0.0145
  67                  66.40    0.6451      0.89    0.0152
  68                  26.00    1.5965     13.75    0.0153
  69                 116.80    0.7279      0.85    0.0142
  7                    0.00    0.0000      0.00    0.0000
  70                  45.30    0.7101      1.41    0.0156
  71                  26.80    1.6456     14.53    0.0152
  72                  18.00    1.1052      7.08    0.0164
  73                  86.40    1.3544      4.53    0.0138
  74                1485.80    1.3679      0.88    0.0108
  76                  48.00    0.4664      0.49    0.0162
  77                   0.00    0.0000      0.00    0.0000
  78                  70.00    1.0973      3.09    0.0144
  79                  -0.00    0.0000      0.00    0.0000
  8                    0.00    0.0000      0.00    0.0000
  80                 259.50    0.7021      0.49    0.0133
  81                   0.00    0.0000      0.00    0.0000
  82                  66.80    0.4163      0.31    0.0158
  83                   0.00    0.0000      0.00    0.0000
  84                 158.20    2.4798     13.67    0.0124
  86                  21.10    1.2956      9.43    0.0159
  87                  22.00    1.3508     10.16    0.0157
  88                  18.00    0.1122      0.03    0.0210
  89                   0.00    0.0000      0.00    0.0000
  9                 1506.90    1.3873      0.90    0.0108
  90                  45.30    0.7101      1.41    0.0156
  92                  26.00    0.1620      0.06    0.0195
  93                  26.00    1.5965     13.75    0.0153
  94                  30.80    0.1919      0.08    0.0186
  95                  18.00    0.6996      2.36    0.0171
  96                  43.00    1.0719      3.90    0.0151
  97                  23.00    1.4122     11.02    0.0156
  98                   0.00    0.0000      0.00    0.0000
  99                   0.00    0.0000      0.00    0.0000
  55                 180.30    1.7518      5.46    0.0127
  101                 20.00    1.2280      8.56    0.0160
  108                160.30    1.5575      4.41    0.0129
  109                  0.00    0.0000      0.00    0.0000
  49                 -48.00    0.4664      0.49    0.0161
  85                -227.80    1.4197      2.87    0.0126
  91                 -39.00    0.6113      1.07    0.0161
  110                  0.00    0.0000      0.00    0.0000
  111                  0.00    0.0000      0.00    0.0000
  17                   0.00    0.0000      0.00    0.0000
  18                  18.00    1.1052      7.08    0.0164
  39                   0.00    0.0000      0.00    0.0000
  75                   0.00    0.0000      0.00    0.0000
  114                -28.00    1.0882      5.23    0.0157
   
  Analysis ended Tue Jun  1 20:54:57 2021
