  Page 1                                    Tue Jun  1 20:54:58 2021

  ******************************************************************
  *                           E P A N E T                          *
  *                   Hydraulic and Water Quality                  *
  *                   Analysis for Pipe Networks                   *
  *                         Version 2.00.12                        *
  ******************************************************************
  
  C:\Mario\Violada 
   
      Input Data File ................... /home/borja/Escritorio/nery/epanet-telecontrol/flowpath/tmp.inp
      Number of Junctions................ 146
      Number of Reservoirs............... 1
      Number of Tanks ................... 0
      Number of Pipes ................... 146
      Number of Pumps ................... 0
      Number of Valves .................. 0
      Headloss Formula .................. Darcy-Weisbach
      Hydraulic Timestep ................ 1.00 hrs
      Hydraulic Accuracy ................ 0.001000
      Status Check Frequency ............ 2
      Maximum Trials Checked ............ 10
      Damping Limit Threshold ........... 0.000000
      Maximum Trials .................... 40
      Quality Analysis .................. None
      Specific Gravity .................. 1.00
      Relative Kinematic Viscosity ...... 1.00
      Relative Chemical Diffusivity ..... 1.00
      Demand Multiplier ................. 1.00
      Total Duration .................... 0.00 hrs
      Reporting Criteria:
         Selected Nodes
         No Links
         with Velocity above 3.00 m/s
   
  Analysis begun Tue Jun  1 20:54:58 2021

   
  Node Results:
  ----------------------------------------------
                     Demand      Head  Pressure
  Node                  L/s         m         m
  ----------------------------------------------
  213               0.000000e+00   4.478864e+02   6.498641e+01
  241               0.000000e+00   4.476789e+02   7.443887e+01
  245               0.000000e+00   4.429294e+02   9.280943e+01
  256               0.000000e+00   4.486644e+02   8.245441e+01
  276               0.000000e+00   4.485806e+02   6.649062e+01
  277               0.000000e+00   4.485466e+02   6.828661e+01
  286               0.000000e+00   4.475279e+02   6.569792e+01
  296               2.600000e+01   4.352179e+02   5.405794e+01
   
   
  Link Results:
  --------------------------------------------------------
                       Flow  Velocity  Headloss  F-Factor
  Link                  L/s       m/s    /1000m          
  --------------------------------------------------------
  1                    0.00    0.0000      0.00    0.0000
  10                  35.00    0.3401      0.28    0.0172
  100                  0.00    0.0000      0.00    0.0000
  102                 68.00    1.0659      2.93    0.0144
  103                 68.00    1.6951      8.97    0.0139
  104                 19.30    0.3025      0.30    0.0185
  105                 24.00    0.5983      1.36    0.0169
  106                 26.80    0.6681      1.66    0.0165
  107                104.00    0.6481      0.69    0.0145
  11                   0.00    0.0000      0.00    0.0000
  112                165.30    0.6087      0.45    0.0140
  113                  0.00    0.0000      0.00    0.0000
  117                192.10    0.5197      0.28    0.0140
  118                165.30    0.6087      0.45    0.0140
  119                165.30    0.6087      0.45    0.0140
  12                   0.00    0.0000      0.00    0.0000
  120                 18.00    0.2822      0.27    0.0188
  122                 18.00    0.6996      2.36    0.0171
  123                  0.00    0.0000      0.00    0.0000
  126                 18.00    0.4487      0.81    0.0179
  127                 18.00    0.4487      0.81    0.0179
  128                165.30    0.8253      0.94    0.0136
  131                147.30    0.9180      1.29    0.0136
  132                165.30    0.8253      0.94    0.0136
  134                  0.00    0.0000      0.00    0.0000
  136                 43.30    0.4207      0.41    0.0165
  137                  0.00    0.0000      0.00    0.0000
  138                  0.00    0.0000      0.00    0.0000
  139                  0.00    0.0000      0.00    0.0000
  14                   0.00    0.0000      0.00    0.0000
  142                 -0.00    0.0000      0.00    0.0000
  143                  0.00    0.0000      0.00    0.0000
  144                 44.00    1.7100     11.86    0.0144
  145                 18.00    0.1749      0.09    0.0198
  148                 86.00    0.5360      0.49    0.0150
  149                 86.00    0.5360      0.49    0.0151
  15                  20.00    0.3135      0.32    0.0184
  150                  0.00    0.0000      0.00    0.0000
  151                  0.00    0.0000      0.00    0.0000
  156                  0.00    0.0000      0.00    0.0000
  16                   0.00    0.0000      0.00    0.0000
  160                  0.00    0.0000      0.00    0.0000
  162                  0.00    0.0000      0.00    0.0000
  171                  0.00    0.0000      0.00    0.0000
  172                  0.00    0.0000      0.00    0.0000
  175                  0.00    0.0000      0.00    0.0000
  181                  0.00    0.0000      0.00    0.0000
  183                 18.00    0.6996      2.36    0.0171
  184                 18.00    0.2822      0.27    0.0188
  185                 18.00    0.2822      0.27    0.0188
  19                   0.00    0.0000      0.00    0.0000
  2                  192.10    0.5197      0.28    0.0140
  20                  -0.00    0.0000      0.00    0.0000
  21                   0.00    0.0000      0.00    0.0000
  22                 155.00    0.5708      0.40    0.0142
  23                   0.00    0.0000      0.00    0.0000
  24                   0.00    0.0000      0.00    0.0000
  25                   0.00    0.0000      0.00    0.0000
  26                 155.00    0.7739      0.83    0.0138
  27                   0.00    0.0000      0.00    0.0000
  28                  46.40    0.4508      0.47    0.0163
  29                  70.00    0.1894      0.05    0.0170
  3                   18.00    0.2822      0.27    0.0188
  30                   0.00    0.0000      0.00    0.0000
  31                 225.00    0.3674      0.11    0.0142
  32                 155.00    0.7739      0.83    0.0138
  33                  70.00    0.1894      0.05    0.0171
  34                 225.00    0.4673      0.20    0.0139
  36                  26.80    0.4201      0.55    0.0173
  37                   0.00    0.0000      0.00    0.0000
  38                   0.00    0.0000      0.00    0.0000
  4                   55.00    0.3428      0.22    0.0164
  40                   0.00    0.0000      0.00    0.0000
  41                  70.00    0.1894      0.05    0.0170
  42                   0.00    0.0000      0.00    0.0000
  43                  70.00    0.1894      0.05    0.0170
  44                   0.00    0.0000      0.00    0.0000
  45                  -0.00    0.0000      0.00    0.0000
  46                   0.00    0.0000      0.00    0.0000
  47                  70.00    0.2578      0.09    0.0165
  48                  70.00    0.2578      0.10    0.0165
  5                    0.00    0.0000      0.00    0.0000
  50                   0.00    0.0000      0.00    0.0000
  51                 225.00    0.4673      0.20    0.0139
  52                   0.00    0.0000      0.00    0.0000
  53                   0.00    0.0000      0.00    0.0000
  54                 463.50    0.4267      0.10    0.0131
  56                   0.00    0.0000      0.00    0.0000
  57                  38.30    0.6004      1.04    0.0161
  58                   0.00    0.0000      0.00    0.0000
  59                  38.30    0.6004      1.04    0.0161
  6                  100.00    0.6232      0.64    0.0146
  60                   0.00    0.0000      0.00    0.0000
  61                  46.40    0.4508      0.46    0.0163
  62                  18.00    0.1749      0.09    0.0198
  63                 271.40    0.4432      0.16    0.0138
  64                  28.40    1.7438     16.14    0.0150
  65                   0.00    0.0000      0.00    0.0000
  66                  46.40    0.2317      0.09    0.0174
  67                  18.00    0.1749      0.09    0.0198
  68                  -0.00    0.0000      0.00    0.0000
  69                  46.40    0.2892      0.16    0.0170
  7                   -0.00    0.0000      0.00    0.0000
  70                   0.00    0.0000      0.00    0.0000
  71                  26.80    1.6456     14.53    0.0152
  72                   0.00    0.0000      0.00    0.0000
  73                   0.00    0.0000      0.00    0.0000
  74                 463.50    0.4267      0.10    0.0130
  76                   0.00    0.0000      0.00    0.0000
  77                   0.00    0.0000      0.00    0.0000
  78                  70.00    1.0973      3.09    0.0144
  79                   0.00    0.0000      0.00    0.0000
  8                   20.00    1.2280      8.56    0.0160
  80                  70.00    0.1894      0.05    0.0170
  81                  -0.00    0.0000      0.00    0.0000
  82                   0.00    0.0000      0.00    0.0000
  83                   0.00    0.0000      0.00    0.0000
  84                  26.80    0.4201      0.55    0.0173
  86                  -0.00    0.0000      0.00    0.0000
  87                  -0.00    0.0000      0.00    0.0000
  88                   0.00    0.0000      0.00    0.0000
  89                   0.00    0.0000      0.00    0.0000
  9                  501.80    0.4620      0.12    0.0130
  90                  18.00    0.2822      0.27    0.0188
  92                   0.00    0.0000      0.00    0.0000
  93                  26.00    1.5965     13.75    0.0153
  94                   0.00    0.0000      0.00    0.0000
  95                   0.00    0.0000      0.00    0.0000
  96                   0.00    0.0000      0.00    0.0000
  97                   0.00    0.0000      0.00    0.0000
  98                  -0.00    0.0000      0.00    0.0000
  99                   0.00    0.0000      0.00    0.0000
  55                  43.30    0.4207      0.41    0.0165
  101                 -0.00    0.0000      0.00    0.0000
  108                 43.30    0.4207      0.41    0.0165
  109                  0.00    0.0000      0.00    0.0000
  49                  -0.00    0.0000      0.00    0.0000
  85                 -55.00    0.3428      0.22    0.0164
  91                  -0.00    0.0000      0.00    0.0000
  110                  0.00    0.0000      0.00    0.0000
  111                 20.00    1.2280      8.56    0.0160
  17                  -0.00    0.0000      0.00    0.0000
  18                   0.00    0.0000      0.00    0.0000
  39                   0.00    0.0000      0.00    0.0000
  75                  -0.00    0.0000      0.00    0.0000
  114                 -0.00    0.0000      0.00    0.0000
   
  Analysis ended Tue Jun  1 20:54:58 2021
