  Page 1                                    Tue Jun  1 20:54:59 2021

  ******************************************************************
  *                           E P A N E T                          *
  *                   Hydraulic and Water Quality                  *
  *                   Analysis for Pipe Networks                   *
  *                         Version 2.00.12                        *
  ******************************************************************
  
  C:\Mario\Violada 
   
      Input Data File ................... /home/borja/Escritorio/nery/epanet-telecontrol/flowpath/tmp.inp
      Number of Junctions................ 146
      Number of Reservoirs............... 1
      Number of Tanks ................... 0
      Number of Pipes ................... 146
      Number of Pumps ................... 0
      Number of Valves .................. 0
      Headloss Formula .................. Darcy-Weisbach
      Hydraulic Timestep ................ 1.00 hrs
      Hydraulic Accuracy ................ 0.001000
      Status Check Frequency ............ 2
      Maximum Trials Checked ............ 10
      Damping Limit Threshold ........... 0.000000
      Maximum Trials .................... 40
      Quality Analysis .................. None
      Specific Gravity .................. 1.00
      Relative Kinematic Viscosity ...... 1.00
      Relative Chemical Diffusivity ..... 1.00
      Demand Multiplier ................. 1.00
      Total Duration .................... 0.00 hrs
      Reporting Criteria:
         Selected Nodes
         No Links
         with Velocity above 3.00 m/s
   
  Analysis begun Tue Jun  1 20:54:59 2021

   
  Node Results:
  ----------------------------------------------
                     Demand      Head  Pressure
  Node                  L/s         m         m
  ----------------------------------------------
  213               0.000000e+00   4.482046e+02   6.530460e+01
  241               0.000000e+00   4.472743e+02   7.403432e+01
  245               1.800000e+01   4.396654e+02   8.954540e+01
  256               0.000000e+00   4.482559e+02   8.204588e+01
  276               0.000000e+00   4.480778e+02   6.598780e+01
  277               2.600000e+01   4.466207e+02   6.636070e+01
  286               0.000000e+00   4.482427e+02   6.641270e+01
  296               0.000000e+00   4.476181e+02   6.645808e+01
   
   
  Link Results:
  --------------------------------------------------------
                       Flow  Velocity  Headloss  F-Factor
  Link                  L/s       m/s    /1000m          
  --------------------------------------------------------
  1                   17.50    0.4362      0.77    0.0180
  10                  39.00    0.3789      0.34    0.0168
  100                  0.00    0.0000      0.00    0.0000
  102                 24.00    0.3762      0.45    0.0177
  103                 24.00    0.5983      1.36    0.0169
  104                 19.30    0.3025      0.30    0.0185
  105                  0.00    0.0000      0.00    0.0000
  106                  0.00    0.0000      0.00    0.0000
  107                 60.00    0.3739      0.25    0.0161
  11                   0.00    0.0000      0.00    0.0000
  112                 97.30    0.3583      0.17    0.0155
  113                 17.50    0.2743      0.25    0.0189
  117                179.90    0.4867      0.25    0.0142
  118                123.30    0.4541      0.26    0.0148
  119                140.80    0.5185      0.34    0.0145
  12                   0.00    0.0000      0.00    0.0000
  120                 18.00    0.2822      0.27    0.0188
  122                 18.00    0.6996      2.36    0.0171
  123                 18.00    0.2822      0.27    0.0188
  126                 18.00    0.4487      0.81    0.0179
  127                 18.00    0.4487      0.81    0.0179
  128                 97.30    0.4858      0.36    0.0150
  131                 79.30    0.4942      0.42    0.0154
  132                 97.30    0.4858      0.36    0.0150
  134                  0.00    0.0000      0.00    0.0000
  136                 19.30    0.1875      0.10    0.0195
  137                  0.00    0.0000      0.00    0.0000
  138                  0.00    0.0000      0.00    0.0000
  139                 -0.00    0.0000      0.00    0.0000
  14                   0.00    0.0000      0.00    0.0000
  142                  0.00    0.0000      0.00    0.0000
  143                 20.00    0.7773      2.85    0.0168
  144                  0.00    0.0000      0.00    0.0000
  145                 18.00    0.1749      0.09    0.0198
  148                 42.00    0.2617      0.13    0.0173
  149                 60.00    0.3739      0.25    0.0161
  15                  18.00    0.2822      0.27    0.0188
  150                  0.00    0.0000      0.00    0.0000
  151                  0.00    0.0000      0.00    0.0000
  156                  0.00    0.0000      0.00    0.0000
  16                   0.00    0.0000      0.00    0.0000
  160                 26.00    0.4076      0.52    0.0174
  162                  0.00    0.0000      0.00    0.0000
  171                 26.00    1.0105      4.58    0.0159
  172                 26.00    0.4076      0.52    0.0174
  175                  0.00    0.0000      0.00    0.0000
  181                  0.00    0.0000      0.00    0.0000
  183                 18.00    0.6996      2.36    0.0171
  184                  0.00    0.0000      0.00    0.0000
  185                  0.00    0.0000      0.00    0.0000
  19                  50.00    1.9432     14.97    0.0141
  2                  179.90    0.4867      0.25    0.0142
  20                   0.00    0.0000      0.00    0.0000
  21                  18.00    0.6996      2.36    0.0171
  22                 157.00    0.5782      0.41    0.0141
  23                   0.00    0.0000      0.00    0.0000
  24                  57.00    0.8935      2.13    0.0149
  25                  18.00    0.2822      0.27    0.0188
  26                 157.00    0.7838      0.85    0.0137
  27                  18.00    0.6996      2.36    0.0171
  28                  26.00    0.2526      0.16    0.0183
  29                 100.80    0.2727      0.09    0.0158
  3                   26.00    0.4076      0.52    0.0174
  30                  70.00    1.0973      3.09    0.0144
  31                 384.80    0.6284      0.29    0.0129
  32                 157.00    0.7838      0.85    0.0137
  33                 100.80    0.2727      0.09    0.0158
  34                 314.80    0.6538      0.36    0.0131
  36                  39.10    0.6129      1.08    0.0160
  37                   0.00    0.0000      0.00    0.0000
  38                   0.00    0.0000      0.00    0.0000
  4                   57.00    0.3552      0.23    0.0163
  40                   0.00    0.0000      0.00    0.0000
  41                 100.80    0.2727      0.09    0.0158
  42                   0.00    0.0000      0.00    0.0000
  43                 157.80    0.4269      0.20    0.0145
  44                   0.00    0.0000      0.00    0.0000
  45                   0.00    0.0000      0.00    0.0000
  46                   0.00    0.0000      0.00    0.0000
  47                 100.80    0.3712      0.18    0.0154
  48                 100.80    0.3712      0.18    0.0153
  5                    0.00    0.0000      0.00    0.0000
  50                   0.00    0.0000      0.00    0.0000
  51                 384.80    0.7991      0.53    0.0126
  52                   0.00    0.0000      0.00    0.0000
  53                  30.80    0.1538      0.05    0.0190
  54                 612.70    0.5641      0.17    0.0125
  56                  70.00    1.0973      3.09    0.0144
  57                   0.00    0.0000      0.00    0.0000
  58                   0.00    0.0000      0.00    0.0000
  59                   0.00    0.0000      0.00    0.0000
  6                  100.00    0.6232      0.64    0.0146
  60                   0.00    0.0000      0.00    0.0000
  61                  26.00    0.2526      0.16    0.0183
  62                  26.00    0.2526      0.16    0.0183
  63                 432.80    0.7068      0.36    0.0127
  64                   0.00    0.0000      0.00    0.0000
  65                   0.00    0.0000      0.00    0.0000
  66                  48.00    0.2396      0.10    0.0171
  67                  26.00    0.2526      0.16    0.0183
  68                  26.00    1.5965     13.75    0.0153
  69                  48.00    0.2991      0.17    0.0169
  7                    0.00    0.0000      0.00    0.0000
  70                  26.00    0.4076      0.52    0.0174
  71                   0.00    0.0000      0.00    0.0000
  72                   0.00    0.0000      0.00    0.0000
  73                   0.00    0.0000      0.00    0.0000
  74                 612.70    0.5641      0.17    0.0125
  76                   0.00    0.0000      0.00    0.0000
  77                   0.00    0.0000      0.00    0.0000
  78                  70.00    1.0973      3.09    0.0144
  79                  -0.00    0.0000      0.00    0.0000
  8                   18.00    1.1052      7.08    0.0164
  80                 100.80    0.2727      0.09    0.0158
  81                   0.00    0.0000      0.00    0.0000
  82                  30.80    0.1919      0.08    0.0184
  83                   0.00    0.0000      0.00    0.0000
  84                  39.10    0.6129      1.08    0.0161
  86                  -0.00    0.0000      0.00    0.0000
  87                  22.00    1.3508     10.16    0.0157
  88                   0.00    0.0000      0.00    0.0000
  89                   0.00    0.0000      0.00    0.0000
  9                  612.70    0.5641      0.17    0.0125
  90                  26.00    0.4076      0.52    0.0174
  92                   0.00    0.0000      0.00    0.0000
  93                   0.00    0.0000      0.00    0.0000
  94                  30.80    0.1919      0.08    0.0186
  95                   0.00    0.0000      0.00    0.0000
  96                   0.00    0.0000      0.00    0.0000
  97                   0.00    0.0000      0.00    0.0000
  98                   0.00    0.0000      0.00    0.0000
  99                   0.00    0.0000      0.00    0.0000
  55                  19.30    0.1875      0.10    0.0195
  101                  0.00    0.0000      0.00    0.0000
  108                 19.30    0.1875      0.10    0.0195
  109                  0.00    0.0000      0.00    0.0000
  49                  -0.00    0.0000      0.00    0.0000
  85                 -57.00    0.3552      0.23    0.0163
  91                 -39.00    0.6113      1.07    0.0161
  110                 18.00    1.1052      7.08    0.0164
  111                  0.00    0.0000      0.00    0.0000
  17                  -0.00    0.0000      0.00    0.0000
  18                   0.00    0.0000      0.00    0.0000
  39                   0.00    0.0000      0.00    0.0000
  75                   0.00    0.0000      0.00    0.0000
  114                 -0.00    0.0000      0.00    0.0000
   
  Analysis ended Tue Jun  1 20:54:59 2021
