  Page 1                                    Tue Jun  1 20:55:02 2021

  ******************************************************************
  *                           E P A N E T                          *
  *                   Hydraulic and Water Quality                  *
  *                   Analysis for Pipe Networks                   *
  *                         Version 2.00.12                        *
  ******************************************************************
  
  C:\Mario\Violada 
   
      Input Data File ................... /home/borja/Escritorio/nery/epanet-telecontrol/flowpath/tmp.inp
      Number of Junctions................ 146
      Number of Reservoirs............... 1
      Number of Tanks ................... 0
      Number of Pipes ................... 146
      Number of Pumps ................... 0
      Number of Valves .................. 0
      Headloss Formula .................. Darcy-Weisbach
      Hydraulic Timestep ................ 1.00 hrs
      Hydraulic Accuracy ................ 0.001000
      Status Check Frequency ............ 2
      Maximum Trials Checked ............ 10
      Damping Limit Threshold ........... 0.000000
      Maximum Trials .................... 40
      Quality Analysis .................. None
      Specific Gravity .................. 1.00
      Relative Kinematic Viscosity ...... 1.00
      Relative Chemical Diffusivity ..... 1.00
      Demand Multiplier ................. 1.00
      Total Duration .................... 0.00 hrs
      Reporting Criteria:
         Selected Nodes
         No Links
         with Velocity above 3.00 m/s
   
  Analysis begun Tue Jun  1 20:55:02 2021

   
  Node Results:
  ----------------------------------------------
                     Demand      Head  Pressure
  Node                  L/s         m         m
  ----------------------------------------------
  213               0.000000e+00   4.471688e+02   6.426884e+01
  241               2.800000e+01   4.307552e+02   5.751525e+01
  245               0.000000e+00   4.407226e+02   9.060257e+01
  256               0.000000e+00   4.464591e+02   8.024911e+01
  276               0.000000e+00   4.461614e+02   6.407142e+01
  277               2.600000e+01   4.443555e+02   6.409554e+01
  286               0.000000e+00   4.449130e+02   6.308297e+01
  296               2.600000e+01   4.402072e+02   5.904721e+01
   
   
  Link Results:
  --------------------------------------------------------
                       Flow  Velocity  Headloss  F-Factor
  Link                  L/s       m/s    /1000m          
  --------------------------------------------------------
  1                   40.70    1.0146      3.53    0.0152
  10                 208.00    2.0209      7.10    0.0123
  100                 24.00    0.5983      1.36    0.0169
  102                 47.50    0.7446      1.53    0.0155
  103                 26.00    0.6481      1.57    0.0166
  104                 19.30    0.3025      0.30    0.0185
  105                  0.00    0.0000      0.00    0.0000
  106                 33.30    0.8301      2.46    0.0158
  107                111.10    0.6924      0.77    0.0143
  11                 134.00    3.3404     30.97    0.0123
  112                224.40    0.8264      0.78    0.0132
  113                 40.70    0.6380      1.16    0.0159
  117                381.50    1.0322      0.98    0.0124
  118                250.40    0.9221      0.96    0.0130
  119                291.10    1.0720      1.26    0.0126
  12                  86.00    2.1438     13.76    0.0133
  120                 18.00    0.2822      0.27    0.0188
  122                  0.00    0.0000      0.00    0.0000
  123                 45.60    0.7148      1.42    0.0156
  126                  0.00    0.0000      0.00    0.0000
  127                  0.00    0.0000      0.00    0.0000
  128                196.40    0.9805      1.28    0.0132
  131                178.40    1.1118      1.84    0.0132
  132                196.40    0.9805      1.28    0.0132
  134                  0.00    0.0000      0.00    0.0000
  136                 19.30    0.1875      0.10    0.0195
  137                  0.00    0.0000      0.00    0.0000
  138                 28.00    0.6980      1.80    0.0164
  139                  0.00    0.0000      0.00    0.0000
  14                  18.00    0.2822      0.27    0.0188
  142                  0.00    0.0000      0.00    0.0000
  143                  0.00    0.0000      0.00    0.0000
  144                 26.00    1.0105      4.58    0.0159
  145                 45.60    0.4431      0.45    0.0163
  148                 93.10    0.5802      0.56    0.0148
  149                 93.10    0.5802      0.56    0.0148
  15                   0.00    0.0000      0.00    0.0000
  150                 45.60    0.7148      1.42    0.0156
  151                 21.60    1.3263      9.83    0.0158
  156                  0.00    0.0000      0.00    0.0000
  16                  18.00    0.4487      0.81    0.0179
  160                 47.00    0.7367      1.50    0.0155
  162                 21.00    0.3292      0.35    0.0182
  171                 26.00    1.0105      4.58    0.0159
  172                 26.00    0.4076      0.52    0.0174
  175                  0.00    0.0000      0.00    0.0000
  181                  0.00    0.0000      0.00    0.0000
  183                  0.00    0.0000      0.00    0.0000
  184                 -0.00    0.0000      0.00    0.0000
  185                  0.00    0.0000      0.00    0.0000
  19                  50.00    1.9432     14.97    0.0141
  2                  381.50    1.0322      0.98    0.0124
  20                  60.00    1.4957      7.15    0.0142
  21                  18.00    0.6996      2.36    0.0171
  22                 442.40    1.6292      2.71    0.0118
  23                  18.00    0.6996      2.36    0.0171
  24                  18.00    0.2822      0.27    0.0188
  25                  18.00    0.2822      0.27    0.0188
  26                 345.80    1.7264      3.60    0.0120
  27                  18.00    0.6996      2.36    0.0171
  28                  96.50    0.9376      1.75    0.0141
  29                 160.60    0.4345      0.20    0.0145
  3                   47.00    0.7367      1.50    0.0155
  30                  79.00    1.2384      3.85    0.0140
  31                 740.00    1.2084      0.97    0.0116
  32                 363.80    1.8163      3.95    0.0119
  33                 200.60    0.5427      0.30    0.0139
  34                 661.00    1.3727      1.42    0.0115
  36                  72.40    1.1349      3.29    0.0143
  37                   0.00    0.0000      0.00    0.0000
  38                   0.00    0.0000      0.00    0.0000
  4                  245.80    1.5318      3.29    0.0125
  40                   0.00    0.0000      0.00    0.0000
  41                 160.60    0.4345      0.20    0.0145
  42                   0.00    0.0000      0.00    0.0000
  43                 218.60    0.5914      0.36    0.0137
  44                  41.80    1.0420      3.71    0.0152
  45                  41.80    1.6245     10.81    0.0146
  46                  40.00    0.9971      3.43    0.0153
  47                 118.80    0.4375      0.25    0.0149
  48                 118.80    0.4375      0.25    0.0149
  5                    0.00    0.0000      0.00    0.0000
  50                   0.00    0.0000      0.00    0.0000
  51                 740.00    1.5368      1.74    0.0113
  52                  -0.00    0.0000      0.00    0.0000
  53                  48.80    0.2436      0.10    0.0172
  54                1261.10    1.1610      0.65    0.0111
  56                  50.00    0.7838      1.68    0.0153
  57                   0.00    0.0000      0.00    0.0000
  58                   0.00    0.0000      0.00    0.0000
  59                   0.00    0.0000      0.00    0.0000
  6                  100.00    0.6232      0.64    0.0146
  60                  24.00    0.5983      1.36    0.0169
  61                  96.50    0.9376      1.75    0.0141
  62                  68.10    0.6617      0.93    0.0151
  63                 858.50    1.4019      1.28    0.0113
  64                  28.40    1.7438     16.14    0.0150
  65                   0.00    0.0000      0.00    0.0000
  66                 118.50    0.5916      0.51    0.0145
  67                  68.10    0.6617      0.93    0.0151
  68                  26.00    1.5965     13.75    0.0153
  69                 118.50    0.7385      0.87    0.0142
  7                   78.60    1.2321      3.82    0.0141
  70                  26.00    0.4076      0.52    0.0174
  71                   0.00    0.0000      0.00    0.0000
  72                   0.00    0.0000      0.00    0.0000
  73                   0.00    0.0000      0.00    0.0000
  74                1240.00    1.1416      0.63    0.0111
  76                   0.00    0.0000      0.00    0.0000
  77                  -0.00    0.0000      0.00    0.0000
  78                  70.00    1.0973      3.09    0.0144
  79                   0.00    0.0000      0.00    0.0000
  8                    0.00    0.0000      0.00    0.0000
  80                 118.80    0.3214      0.12    0.0153
  81                  -0.00    0.0000      0.00    0.0000
  82                  48.80    0.3041      0.18    0.0169
  83                   0.00    0.0000      0.00    0.0000
  84                  90.40    1.4171      4.92    0.0137
  86                  21.10    1.2956      9.43    0.0159
  87                  22.00    1.3508     10.16    0.0157
  88                  18.00    0.1122      0.03    0.0210
  89                  29.00    1.1271      5.57    0.0156
  9                 1261.10    1.1610      0.65    0.0111
  90                  47.00    0.7367      1.50    0.0155
  92                  -0.00    0.0000      0.00    0.0000
  93                  26.00    1.5965     13.75    0.0153
  94                  30.80    0.1919      0.08    0.0186
  95                   0.00    0.0000      0.00    0.0000
  96                  -0.00    0.0000      0.00    0.0000
  97                  -0.00    0.0000      0.00    0.0000
  98                   0.00    0.0000      0.00    0.0000
  99                  23.20    1.4245     11.19    0.0156
  55                  67.30    0.6539      0.91    0.0151
  101                 20.00    1.2280      8.56    0.0160
  108                 47.30    0.4596      0.48    0.0162
  109                  0.00    0.0000      0.00    0.0000
  49                  -0.00    0.0000      0.00    0.0000
  85                -227.80    1.4197      2.87    0.0126
  91                 -39.00    0.6113      1.07    0.0161
  110                  0.00    0.0000      0.00    0.0000
  111                  0.00    0.0000      0.00    0.0000
  17                  -0.00    0.0000      0.00    0.0000
  18                   0.00    0.0000      0.00    0.0000
  39                   0.00    0.0000      0.00    0.0000
  75                   0.00    0.0000      0.00    0.0000
  114                -28.00    1.0882      5.23    0.0157
   
  Analysis ended Tue Jun  1 20:55:02 2021
