  Page 1                                    Tue Jun  1 20:55:04 2021

  ******************************************************************
  *                           E P A N E T                          *
  *                   Hydraulic and Water Quality                  *
  *                   Analysis for Pipe Networks                   *
  *                         Version 2.00.12                        *
  ******************************************************************
  
  C:\Mario\Violada 
   
      Input Data File ................... /home/borja/Escritorio/nery/epanet-telecontrol/flowpath/tmp.inp
      Number of Junctions................ 146
      Number of Reservoirs............... 1
      Number of Tanks ................... 0
      Number of Pipes ................... 146
      Number of Pumps ................... 0
      Number of Valves .................. 0
      Headloss Formula .................. Darcy-Weisbach
      Hydraulic Timestep ................ 1.00 hrs
      Hydraulic Accuracy ................ 0.001000
      Status Check Frequency ............ 2
      Maximum Trials Checked ............ 10
      Damping Limit Threshold ........... 0.000000
      Maximum Trials .................... 40
      Quality Analysis .................. None
      Specific Gravity .................. 1.00
      Relative Kinematic Viscosity ...... 1.00
      Relative Chemical Diffusivity ..... 1.00
      Demand Multiplier ................. 1.00
      Total Duration .................... 0.00 hrs
      Reporting Criteria:
         Selected Nodes
         No Links
         with Velocity above 3.00 m/s
   
  Analysis begun Tue Jun  1 20:55:04 2021

   
  Node Results:
  ----------------------------------------------
                     Demand      Head  Pressure
  Node                  L/s         m         m
  ----------------------------------------------
  213               0.000000e+00   4.482393e+02   6.533936e+01
  241               0.000000e+00   4.439838e+02   7.074380e+01
  245               0.000000e+00   4.473183e+02   9.719833e+01
  256               0.000000e+00   4.483491e+02   8.213908e+01
  276               0.000000e+00   4.481912e+02   6.610117e+01
  277               0.000000e+00   4.471051e+02   6.684506e+01
  286               1.800000e+01   4.421873e+02   6.035733e+01
  296               0.000000e+00   4.470160e+02   6.585599e+01
   
   
  Link Results:
  --------------------------------------------------------
                       Flow  Velocity  Headloss  F-Factor
  Link                  L/s       m/s    /1000m          
  --------------------------------------------------------
  1                    0.00    0.0000      0.00    0.0000
  10                 121.00    1.1756      2.64    0.0136
  100                  0.00    0.0000      0.00    0.0000
  102                 18.00    0.2822      0.27    0.0188
  103                 18.00    0.4487      0.81    0.0179
  104                 19.30    0.3025      0.30    0.0185
  105                 47.00    1.1716      4.59    0.0148
  106                 44.80    1.1168      4.21    0.0150
  107                 68.00    0.4238      0.32    0.0157
  11                  86.00    2.1438     13.76    0.0133
  112                157.30    0.5793      0.41    0.0141
  113                  0.00    0.0000      0.00    0.0000
  117                202.10    0.5468      0.31    0.0139
  118                157.30    0.5793      0.41    0.0141
  119                157.30    0.5793      0.41    0.0141
  12                  86.00    2.1438     13.76    0.0133
  120                  0.00    0.0000      0.00    0.0000
  122                  0.00    0.0000      0.00    0.0000
  123                  0.00    0.0000      0.00    0.0000
  126                  0.00    0.0000      0.00    0.0000
  127                  0.00    0.0000      0.00    0.0000
  128                157.30    0.7853      0.85    0.0137
  131                157.30    0.9803      1.46    0.0135
  132                157.30    0.7853      0.85    0.0137
  134                  0.00    0.0000      0.00    0.0000
  136                 66.30    0.6442      0.89    0.0152
  137                 23.00    1.4122     11.02    0.0156
  138                 23.00    0.5733      1.26    0.0170
  139                  0.00    0.0000      0.00    0.0000
  14                   0.00    0.0000      0.00    0.0000
  142                 -0.00    0.0000      0.00    0.0000
  143                  0.00    0.0000      0.00    0.0000
  144                 18.00    0.6996      2.36    0.0171
  145                 32.00    0.3109      0.24    0.0175
  148                 50.00    0.3116      0.18    0.0167
  149                 50.00    0.3116      0.18    0.0167
  15                   0.00    0.0000      0.00    0.0000
  150                  0.00    0.0000      0.00    0.0000
  151                  0.00    0.0000      0.00    0.0000
  156                  0.00    0.0000      0.00    0.0000
  16                   0.00    0.0000      0.00    0.0000
  160                 40.30    0.6317      1.14    0.0160
  162                 21.00    0.3292      0.35    0.0182
  171                  0.00    0.0000      0.00    0.0000
  172                  0.00    0.0000      0.00    0.0000
  175                  0.00    0.0000      0.00    0.0000
  181                  0.00    0.0000      0.00    0.0000
  183                  0.00    0.0000      0.00    0.0000
  184                  0.00    0.0000      0.00    0.0000
  185                 32.00    0.5016      0.75    0.0167
  19                  50.00    1.9432     14.97    0.0141
  2                  202.10    0.5468      0.31    0.0139
  20                   0.00    0.0000      0.00    0.0000
  21                   0.00    0.0000      0.00    0.0000
  22                 121.00    0.4456      0.26    0.0148
  23                   0.00    0.0000      0.00    0.0000
  24                   0.00    0.0000      0.00    0.0000
  25                   0.00    0.0000      0.00    0.0000
  26                 121.00    0.6041      0.53    0.0144
  27                  -0.00    0.0000      0.00    0.0000
  28                  58.30    0.5665      0.70    0.0155
  29                  96.00    0.2597      0.08    0.0160
  3                   58.30    0.9139      2.22    0.0149
  30                  50.00    0.7838      1.68    0.0153
  31                 327.00    0.5340      0.22    0.0133
  32                 121.00    0.6041      0.53    0.0144
  33                 156.00    0.4221      0.19    0.0145
  34                 277.00    0.5753      0.29    0.0134
  36                  44.80    0.7023      1.38    0.0156
  37                   0.00    0.0000      0.00    0.0000
  38                   0.00    0.0000      0.00    0.0000
  4                  121.00    0.7541      0.90    0.0141
  40                   0.00    0.0000      0.00    0.0000
  41                  96.00    0.2597      0.08    0.0160
  42                  20.00    1.2280      8.56    0.0160
  43                 156.00    0.4221      0.19    0.0145
  44                   0.00    0.0000      0.00    0.0000
  45                  -0.00    0.0000      0.00    0.0000
  46                  60.00    1.4957      7.15    0.0142
  47                  96.00    0.3535      0.17    0.0155
  48                  96.00    0.3535      0.17    0.0155
  5                    0.00    0.0000      0.00    0.0000
  50                   0.00    0.0000      0.00    0.0000
  51                 327.00    0.6791      0.39    0.0130
  52                   0.00    0.0000      0.00    0.0000
  53                  26.00    0.1298      0.03    0.0197
  54                 609.40    0.5610      0.17    0.0125
  56                  50.00    0.7838      1.68    0.0153
  57                  38.30    0.6004      1.04    0.0161
  58                   0.00    0.0000      0.00    0.0000
  59                  38.30    0.6004      1.04    0.0161
  6                    0.00    0.0000      0.00    0.0000
  60                   0.00    0.0000      0.00    0.0000
  61                  58.30    0.5665      0.70    0.0156
  62                  58.30    0.5665      0.70    0.0155
  63                 407.30    0.6651      0.33    0.0128
  64                   0.00    0.0000      0.00    0.0000
  65                   0.00    0.0000      0.00    0.0000
  66                  80.30    0.4009      0.25    0.0155
  67                  58.30    0.5665      0.70    0.0155
  68                   0.00    0.0000      0.00    0.0000
  69                  80.30    0.5004      0.43    0.0153
  7                    0.00    0.0000      0.00    0.0000
  70                  19.30    0.3025      0.30    0.0185
  71                  26.80    1.6456     14.53    0.0152
  72                  18.00    1.1052      7.08    0.0164
  73                   0.00    0.0000      0.00    0.0000
  74                 609.40    0.5610      0.17    0.0126
  76                   0.00    0.0000      0.00    0.0000
  77                  -0.00    0.0000      0.00    0.0000
  78                  70.00    1.0973      3.09    0.0144
  79                   0.00    0.0000      0.00    0.0000
  8                    0.00    0.0000      0.00    0.0000
  80                  96.00    0.2597      0.08    0.0160
  81                  32.00    0.7977      2.29    0.0160
  82                   0.00    0.0000      0.00    0.0000
  83                   0.00    0.0000      0.00    0.0000
  84                  44.80    0.7023      1.38    0.0156
  86                   0.00    0.0000      0.00    0.0000
  87                  22.00    1.3508     10.17    0.0157
  88                   0.00    0.0000      0.00    0.0000
  89                   0.00    0.0000      0.00    0.0000
  9                  647.70    0.5963      0.19    0.0124
  90                  58.30    0.9139      2.22    0.0149
  92                  26.00    0.1620      0.06    0.0195
  93                   0.00    0.0000      0.00    0.0000
  94                   0.00    0.0000      0.00    0.0000
  95                   0.00    0.0000      0.00    0.0000
  96                   0.00    0.0000      0.00    0.0000
  97                  23.00    1.4122     11.02    0.0156
  98                   0.00    0.0000      0.00    0.0000
  99                   0.00    0.0000      0.00    0.0000
  55                  89.30    0.8676      1.52    0.0143
  101                  0.00    0.0000      0.00    0.0000
  108                 89.30    0.8676      1.52    0.0143
  109                 32.00    0.7977      2.29    0.0160
  49                  -0.00    0.0000      0.00    0.0000
  85                -121.00    0.7541      0.91    0.0141
  91                  -0.00    0.0000      0.00    0.0000
  110                  0.00    0.0000      0.00    0.0000
  111                  0.00    0.0000      0.00    0.0000
  17                  32.00    1.2437      6.66    0.0153
  18                   0.00    0.0000      0.00    0.0000
  39                   0.00    0.0000      0.00    0.0000
  75                  -0.00    0.0000      0.00    0.0000
  114                 -0.00    0.0000      0.00    0.0000
   
  Analysis ended Tue Jun  1 20:55:04 2021
