  Page 1                                    Tue Jun  1 20:55:07 2021

  ******************************************************************
  *                           E P A N E T                          *
  *                   Hydraulic and Water Quality                  *
  *                   Analysis for Pipe Networks                   *
  *                         Version 2.00.12                        *
  ******************************************************************
  
  C:\Mario\Violada 
   
      Input Data File ................... /home/borja/Escritorio/nery/epanet-telecontrol/flowpath/tmp.inp
      Number of Junctions................ 146
      Number of Reservoirs............... 1
      Number of Tanks ................... 0
      Number of Pipes ................... 146
      Number of Pumps ................... 0
      Number of Valves .................. 0
      Headloss Formula .................. Darcy-Weisbach
      Hydraulic Timestep ................ 1.00 hrs
      Hydraulic Accuracy ................ 0.001000
      Status Check Frequency ............ 2
      Maximum Trials Checked ............ 10
      Damping Limit Threshold ........... 0.000000
      Maximum Trials .................... 40
      Quality Analysis .................. None
      Specific Gravity .................. 1.00
      Relative Kinematic Viscosity ...... 1.00
      Relative Chemical Diffusivity ..... 1.00
      Demand Multiplier ................. 1.00
      Total Duration .................... 0.00 hrs
      Reporting Criteria:
         Selected Nodes
         No Links
         with Velocity above 3.00 m/s
   
  Analysis begun Tue Jun  1 20:55:07 2021

   
  Node Results:
  ----------------------------------------------
                     Demand      Head  Pressure
  Node                  L/s         m         m
  ----------------------------------------------
  213               0.000000e+00   4.481049e+02   6.520493e+01
  241               0.000000e+00   4.424349e+02   6.919495e+01
  245               0.000000e+00   4.457695e+02   9.564948e+01
  256               0.000000e+00   4.479557e+02   8.174577e+01
  276               0.000000e+00   4.478551e+02   6.576508e+01
  277               0.000000e+00   4.457378e+02   6.547781e+01
  286               0.000000e+00   4.481177e+02   6.628769e+01
  296               0.000000e+00   4.468379e+02   6.567788e+01
   
   
  Link Results:
  --------------------------------------------------------
                       Flow  Velocity  Headloss  F-Factor
  Link                  L/s       m/s    /1000m          
  --------------------------------------------------------
  1                   17.50    0.4362      0.77    0.0180
  10                 121.00    1.1756      2.64    0.0136
  100                  0.00    0.0000      0.00    0.0000
  102                 45.50    0.7132      1.42    0.0156
  103                 24.00    0.5983      1.36    0.0169
  104                 19.30    0.3025      0.30    0.0185
  105                  0.00    0.0000      0.00    0.0000
  106                  0.00    0.0000      0.00    0.0000
  107                 99.50    0.6201      0.63    0.0146
  11                  86.00    2.1438     13.76    0.0133
  112                136.80    0.5038      0.32    0.0145
  113                 47.50    0.7446      1.53    0.0155
  117                223.40    0.6044      0.37    0.0136
  118                136.80    0.5038      0.32    0.0145
  119                184.30    0.6787      0.55    0.0137
  12                  86.00    2.1438     13.76    0.0133
  120                 18.00    0.2822      0.27    0.0188
  122                  0.00    0.0000      0.00    0.0000
  123                 18.00    0.2822      0.27    0.0188
  126                  0.00    0.0000      0.00    0.0000
  127                 18.00    0.4487      0.81    0.0179
  128                136.80    0.6830      0.66    0.0141
  131                118.80    0.7404      0.88    0.0142
  132                136.80    0.6830      0.66    0.0141
  134                  0.00    0.0000      0.00    0.0000
  136                 19.30    0.1875      0.10    0.0195
  137                  0.00    0.0000      0.00    0.0000
  138                  0.00    0.0000      0.00    0.0000
  139                  0.00    0.0000      0.00    0.0000
  14                  40.00    0.6270      1.12    0.0160
  142                  0.00    0.0000      0.00    0.0000
  143                  0.00    0.0000      0.00    0.0000
  144                  0.00    0.0000      0.00    0.0000
  145                 36.00    0.3498      0.29    0.0171
  148                 81.50    0.5079      0.44    0.0152
  149                 81.50    0.5079      0.44    0.0152
  15                   0.00    0.0000      0.00    0.0000
  150                  0.00    0.0000      0.00    0.0000
  151                  0.00    0.0000      0.00    0.0000
  156                  0.00    0.0000      0.00    0.0000
  16                  40.00    0.9971      3.43    0.0153
  160                 40.30    0.6317      1.14    0.0160
  162                 21.00    0.3292      0.35    0.0182
  171                  0.00    0.0000      0.00    0.0000
  172                  0.00    0.0000      0.00    0.0000
  175                  0.00    0.0000      0.00    0.0000
  181                 71.20    1.7749      9.76    0.0137
  183                  0.00    0.0000      0.00    0.0000
  184                 18.00    0.2822      0.27    0.0188
  185                 18.00    0.2822      0.27    0.0188
  19                  50.00    1.9432     14.97    0.0141
  2                  223.40    0.6044      0.37    0.0136
  20                  60.00    1.4957      7.15    0.0142
  21                  -0.00    0.0000      0.00    0.0000
  22                 258.80    0.9531      1.02    0.0129
  23                  40.00    1.5546      9.98    0.0147
  24                   0.00    0.0000      0.00    0.0000
  25                   0.00    0.0000      0.00    0.0000
  26                 158.80    0.7928      0.87    0.0137
  27                  -0.00    0.0000      0.00    0.0000
  28                 107.80    1.0474      2.14    0.0139
  29                  56.80    0.1537      0.03    0.0177
  3                   58.30    0.9139      2.22    0.0149
  30                  79.00    1.2384      3.85    0.0140
  31                 452.60    0.7391      0.40    0.0126
  32                 198.80    0.9925      1.31    0.0132
  33                  96.80    0.2619      0.08    0.0159
  34                 355.60    0.7385      0.46    0.0128
  36                  39.10    0.6129      1.08    0.0160
  37                   0.00    0.0000      0.00    0.0000
  38                   0.00    0.0000      0.00    0.0000
  4                  158.80    0.9897      1.48    0.0134
  40                   0.00    0.0000      0.00    0.0000
  41                  56.80    0.1537      0.03    0.0178
  42                   0.00    0.0000      0.00    0.0000
  43                  96.80    0.2619      0.08    0.0159
  44                   0.00    0.0000      0.00    0.0000
  45                   0.00    0.0000      0.00    0.0000
  46                  40.00    0.9971      3.43    0.0153
  47                  56.80    0.2092      0.07    0.0172
  48                  56.80    0.2092      0.07    0.0172
  5                   22.00    1.3508     10.16    0.0157
  50                  18.00    0.6996      2.36    0.0171
  51                 434.60    0.9026      0.66    0.0124
  52                  18.00    1.1052      7.07    0.0164
  53                  56.80    0.2836      0.14    0.0167
  54                 828.70    0.7629      0.30    0.0119
  56                  50.00    0.7838      1.68    0.0153
  57                 109.50    1.7165      6.98    0.0132
  58                   0.00    0.0000      0.00    0.0000
  59                 109.50    1.7165      6.98    0.0132
  6                    0.00    0.0000      0.00    0.0000
  60                   0.00    0.0000      0.00    0.0000
  61                 130.70    1.2699      3.04    0.0134
  62                  79.40    0.7715      1.23    0.0147
  63                 605.30    0.9885      0.67    0.0119
  64                  28.40    1.7438     16.14    0.0150
  65                   0.00    0.0000      0.00    0.0000
  66                 152.70    0.7624      0.81    0.0138
  67                  79.40    0.7715      1.23    0.0147
  68                   0.00    0.0000      0.00    0.0000
  69                 152.70    0.9516      1.38    0.0135
  7                   60.00    0.9405      2.34    0.0148
  70                  19.30    0.3025      0.30    0.0185
  71                   0.00    0.0000      0.00    0.0000
  72                   0.00    0.0000      0.00    0.0000
  73                   0.00    0.0000      0.00    0.0000
  74                 828.70    0.7629      0.30    0.0120
  76                   0.00    0.0000      0.00    0.0000
  77                   0.00    0.0000      0.00    0.0000
  78                   0.00    0.0000      0.00    0.0000
  79                   0.00    0.0000      0.00    0.0000
  8                    0.00    0.0000      0.00    0.0000
  80                  56.80    0.1537      0.03    0.0178
  81                   0.00    0.0000      0.00    0.0000
  82                  30.80    0.1919      0.08    0.0184
  83                  -0.00    0.0000      0.00    0.0000
  84                  39.10    0.6129      1.08    0.0161
  86                  21.10    1.2956      9.43    0.0159
  87                  22.00    1.3508     10.17    0.0157
  88                   0.00    0.0000      0.00    0.0000
  89                  29.00    1.1271      5.57    0.0156
  9                  938.20    0.8638      0.38    0.0116
  90                  58.30    0.9139      2.22    0.0149
  92                  26.00    0.1620      0.06    0.0189
  93                   0.00    0.0000      0.00    0.0000
  94                  30.80    0.1919      0.08    0.0186
  95                   0.00    0.0000      0.00    0.0000
  96                   0.00    0.0000      0.00    0.0000
  97                   0.00    0.0000      0.00    0.0000
  98                  -0.00    0.0000      0.00    0.0000
  99                   0.00    0.0000      0.00    0.0000
  55                  19.30    0.1875      0.10    0.0195
  101                  0.00    0.0000      0.00    0.0000
  108                 19.30    0.1875      0.10    0.0195
  109                  0.00    0.0000      0.00    0.0000
  49                  -0.00    0.0000      0.00    0.0000
  85                -140.80    0.8775      1.19    0.0137
  91                  -0.00    0.0000      0.00    0.0000
  110                  0.00    0.0000      0.00    0.0000
  111                  0.00    0.0000      0.00    0.0000
  17                   0.00    0.0000      0.00    0.0000
  18                   0.00    0.0000      0.00    0.0000
  39                   0.00    0.0000      0.00    0.0000
  75                   0.00    0.0000      0.00    0.0000
  114                 -0.00    0.0000      0.00    0.0000
   
  Analysis ended Tue Jun  1 20:55:07 2021
