  Page 1                                    Tue Jun  1 20:55:06 2021

  ******************************************************************
  *                           E P A N E T                          *
  *                   Hydraulic and Water Quality                  *
  *                   Analysis for Pipe Networks                   *
  *                         Version 2.00.12                        *
  ******************************************************************
  
  C:\Mario\Violada 
   
      Input Data File ................... /home/borja/Escritorio/nery/epanet-telecontrol/flowpath/tmp.inp
      Number of Junctions................ 146
      Number of Reservoirs............... 1
      Number of Tanks ................... 0
      Number of Pipes ................... 146
      Number of Pumps ................... 0
      Number of Valves .................. 0
      Headloss Formula .................. Darcy-Weisbach
      Hydraulic Timestep ................ 1.00 hrs
      Hydraulic Accuracy ................ 0.001000
      Status Check Frequency ............ 2
      Maximum Trials Checked ............ 10
      Damping Limit Threshold ........... 0.000000
      Maximum Trials .................... 40
      Quality Analysis .................. None
      Specific Gravity .................. 1.00
      Relative Kinematic Viscosity ...... 1.00
      Relative Chemical Diffusivity ..... 1.00
      Demand Multiplier ................. 1.00
      Total Duration .................... 0.00 hrs
      Reporting Criteria:
         Selected Nodes
         No Links
         with Velocity above 3.00 m/s
   
  Analysis begun Tue Jun  1 20:55:06 2021

   
  Node Results:
  ----------------------------------------------
                     Demand      Head  Pressure
  Node                  L/s         m         m
  ----------------------------------------------
  213               0.000000e+00   4.485616e+02   6.566164e+01
  241               0.000000e+00   4.462821e+02   7.304211e+01
  245               0.000000e+00   4.462821e+02   9.616212e+01
  256               0.000000e+00   4.481276e+02   8.191759e+01
  276               0.000000e+00   4.481186e+02   6.602858e+01
  277               0.000000e+00   4.473033e+02   6.704330e+01
  286               0.000000e+00   4.482044e+02   6.637438e+01
  296               0.000000e+00   4.485576e+02   6.739763e+01
   
   
  Link Results:
  --------------------------------------------------------
                       Flow  Velocity  Headloss  F-Factor
  Link                  L/s       m/s    /1000m          
  --------------------------------------------------------
  1                   40.70    1.0146      3.54    0.0152
  10                   0.00    0.0000      0.00    0.0000
  100                  0.00    0.0000      0.00    0.0000
  102                  0.00    0.0000      0.00    0.0000
  103                 -0.00    0.0000      0.00    0.0000
  104                 19.30    0.3025      0.30    0.0185
  105                  0.00    0.0000      0.00    0.0000
  106                  0.00    0.0000      0.00    0.0000
  107                 18.00    0.1122      0.03    0.0210
  11                   0.00    0.0000      0.00    0.0000
  112                 85.30    0.3141      0.14    0.0159
  113                 40.70    0.6380      1.16    0.0159
  117                191.10    0.5170      0.28    0.0140
  118                111.30    0.4099      0.22    0.0151
  119                152.00    0.5598      0.39    0.0142
  12                  -0.00    0.0000      0.00    0.0000
  120                  0.00    0.0000      0.00    0.0000
  122                  0.00    0.0000      0.00    0.0000
  123                  0.00    0.0000      0.00    0.0000
  126                  0.00    0.0000      0.00    0.0000
  127                  0.00    0.0000      0.00    0.0000
  128                 85.30    0.4259      0.28    0.0154
  131                 85.30    0.5316      0.48    0.0150
  132                 85.30    0.4259      0.28    0.0154
  134                  0.00    0.0000      0.00    0.0000
  136                 19.30    0.1875      0.10    0.0195
  137                  0.00    0.0000      0.00    0.0000
  138                 28.00    0.6980      1.80    0.0164
  139                  0.00    0.0000      0.00    0.0000
  14                  33.00    0.5173      0.79    0.0166
  142                 -0.00    0.0000      0.00    0.0000
  143                  0.00    0.0000      0.00    0.0000
  144                 -0.00    0.0000      0.00    0.0000
  145                  0.00    0.0000      0.00    0.0000
  148                  0.00    0.0000      0.00    0.0000
  149                  0.00    0.0000      0.00    0.0000
  15                   0.00    0.0000      0.00    0.0000
  150                  0.00    0.0000      0.00    0.0000
  151                  0.00    0.0000      0.00    0.0000
  156                  0.00    0.0000      0.00    0.0000
  16                   0.00    0.0000      0.00    0.0000
  160                 40.30    0.6317      1.14    0.0160
  162                 21.00    0.3292      0.35    0.0182
  171                  0.00    0.0000      0.00    0.0000
  172                  0.00    0.0000      0.00    0.0000
  175                  0.00    0.0000      0.00    0.0000
  181                 -0.00    0.0000      0.00    0.0000
  183                  0.00    0.0000      0.00    0.0000
  184                 -0.00    0.0000      0.00    0.0000
  185                  0.00    0.0000      0.00    0.0000
  19                  50.00    1.9432     14.97    0.0141
  2                  191.10    0.5170      0.28    0.0140
  20                  60.00    1.4957      7.15    0.0142
  21                  18.00    0.6996      2.36    0.0171
  22                 324.60    1.1954      1.54    0.0124
  23                   0.00    0.0000      0.00    0.0000
  24                  18.00    0.2822      0.27    0.0188
  25                  18.00    0.2822      0.27    0.0188
  26                 213.00    1.0634      1.48    0.0130
  27                  18.00    0.6996      2.36    0.0171
  28                  61.40    0.5966      0.77    0.0154
  29                  41.80    0.1131      0.02    0.0190
  3                   40.30    0.6317      1.14    0.0160
  30                  50.00    0.7838      1.68    0.0153
  31                 434.40    0.7094      0.37    0.0126
  32                 246.00    1.2282      1.93    0.0127
  33                  41.80    0.1131      0.02    0.0189
  34                 384.40    0.7983      0.52    0.0127
  36                  39.10    0.6129      1.08    0.0160
  37                  93.20    2.3233     15.94    0.0131
  38                   0.00    0.0000      0.00    0.0000
  4                   19.80    0.1234      0.03    0.0203
  40                   0.00    0.0000      0.00    0.0000
  41                  41.80    0.1131      0.02    0.0189
  42                   0.00    0.0000      0.00    0.0000
  43                  59.80    0.1618      0.03    0.0176
  44                  41.80    1.0420      3.71    0.0152
  45                  41.80    1.6245     10.81    0.0146
  46                   0.00    0.0000      0.00    0.0000
  47                   0.00    0.0000      0.00    0.0000
  48                   0.00    0.0000      0.00    0.0000
  5                    0.00    0.0000      0.00    0.0000
  50                   0.00    0.0000      0.00    0.0000
  51                 434.40    0.9021      0.66    0.0124
  52                  -0.00    0.0000      0.00    0.0000
  53                   0.00    0.0000      0.00    0.0000
  54                 708.00    0.6518      0.22    0.0122
  56                  50.00    0.7838      1.68    0.0153
  57                   0.00    0.0000      0.00    0.0000
  58                   0.00    0.0000      0.00    0.0000
  59                   0.00    0.0000      0.00    0.0000
  6                  193.20    1.2040      2.12    0.0130
  60                   0.00    0.0000      0.00    0.0000
  61                  61.40    0.5966      0.77    0.0154
  62                  61.40    0.5966      0.77    0.0154
  63                 495.80    0.8096      0.47    0.0124
  64                   0.00    0.0000      0.00    0.0000
  65                   0.00    0.0000      0.00    0.0000
  66                  61.40    0.3065      0.15    0.0162
  67                  61.40    0.5966      0.77    0.0154
  68                  -0.00    0.0000      0.00    0.0000
  69                  61.40    0.3827      0.27    0.0161
  7                   78.60    1.2321      3.82    0.0141
  70                  19.30    0.3025      0.30    0.0185
  71                   0.00    0.0000      0.00    0.0000
  72                   0.00    0.0000      0.00    0.0000
  73                   0.00    0.0000      0.00    0.0000
  74                 686.90    0.6324      0.21    0.0123
  76                   0.00    0.0000      0.00    0.0000
  77                   0.00    0.0000      0.00    0.0000
  78                   0.00    0.0000      0.00    0.0000
  79                   0.00    0.0000      0.00    0.0000
  8                    0.00    0.0000      0.00    0.0000
  80                   0.00    0.0000      0.00    0.0000
  81                   0.00    0.0000      0.00    0.0000
  82                   0.00    0.0000      0.00    0.0000
  83                   0.00    0.0000      0.00    0.0000
  84                  39.10    0.6129      1.08    0.0160
  86                  21.10    1.2956      9.43    0.0159
  87                   0.00    0.0000      0.00    0.0000
  88                   0.00    0.0000      0.00    0.0000
  89                   0.00    0.0000      0.00    0.0000
  9                  708.00    0.6518      0.22    0.0122
  90                  40.30    0.6317      1.14    0.0160
  92                   0.00    0.0000      0.00    0.0000
  93                   0.00    0.0000      0.00    0.0000
  94                   0.00    0.0000      0.00    0.0000
  95                   0.00    0.0000      0.00    0.0000
  96                   0.00    0.0000      0.00    0.0000
  97                   0.00    0.0000      0.00    0.0000
  98                   0.00    0.0000      0.00    0.0000
  99                  23.20    1.4245     11.19    0.0156
  55                  67.30    0.6539      0.91    0.0151
  101                 20.00    1.2280      8.56    0.0160
  108                 47.30    0.4596      0.48    0.0162
  109                  0.00    0.0000      0.00    0.0000
  49                  -0.00    0.0000      0.00    0.0000
  85                 -19.80    0.1234      0.03    0.0204
  91                  -0.00    0.0000      0.00    0.0000
  110                 -0.00    0.0000      0.00    0.0000
  111                  0.00    0.0000      0.00    0.0000
  17                  -0.00    0.0000      0.00    0.0000
  18                   0.00    0.0000      0.00    0.0000
  39                   0.00    0.0000      0.00    0.0000
  75                   0.00    0.0000      0.00    0.0000
  114                  0.00    0.0000      0.00    0.0000
   
  Analysis ended Tue Jun  1 20:55:06 2021
