  Page 1                                    Tue Jun  1 20:55:08 2021

  ******************************************************************
  *                           E P A N E T                          *
  *                   Hydraulic and Water Quality                  *
  *                   Analysis for Pipe Networks                   *
  *                         Version 2.00.12                        *
  ******************************************************************
  
  C:\Mario\Violada 
   
      Input Data File ................... /home/borja/Escritorio/nery/epanet-telecontrol/flowpath/tmp.inp
      Number of Junctions................ 146
      Number of Reservoirs............... 1
      Number of Tanks ................... 0
      Number of Pipes ................... 146
      Number of Pumps ................... 0
      Number of Valves .................. 0
      Headloss Formula .................. Darcy-Weisbach
      Hydraulic Timestep ................ 1.00 hrs
      Hydraulic Accuracy ................ 0.001000
      Status Check Frequency ............ 2
      Maximum Trials Checked ............ 10
      Damping Limit Threshold ........... 0.000000
      Maximum Trials .................... 40
      Quality Analysis .................. None
      Specific Gravity .................. 1.00
      Relative Kinematic Viscosity ...... 1.00
      Relative Chemical Diffusivity ..... 1.00
      Demand Multiplier ................. 1.00
      Total Duration .................... 0.00 hrs
      Reporting Criteria:
         Selected Nodes
         No Links
         with Velocity above 3.00 m/s
   
  Analysis begun Tue Jun  1 20:55:08 2021

   
  Node Results:
  ----------------------------------------------
                     Demand      Head  Pressure
  Node                  L/s         m         m
  ----------------------------------------------
  213               0.000000e+00   4.487816e+02   6.588158e+01
  241               0.000000e+00   4.476189e+02   7.437893e+01
  245               0.000000e+00   4.478140e+02   9.769401e+01
  256               0.000000e+00   4.483681e+02   8.215813e+01
  276               0.000000e+00   4.482102e+02   6.612022e+01
  277               0.000000e+00   4.484335e+02   6.817350e+01
  286               0.000000e+00   4.489153e+02   6.708526e+01
  296               0.000000e+00   4.484800e+02   6.731998e+01
   
   
  Link Results:
  --------------------------------------------------------
                       Flow  Velocity  Headloss  F-Factor
  Link                  L/s       m/s    /1000m          
  --------------------------------------------------------
  1                    0.00    0.0000      0.00    0.0000
  10                  20.00    0.1943      0.10    0.0194
  100                 24.00    0.5983      1.36    0.0169
  102                 21.50    0.3370      0.37    0.0181
  103                  0.00    0.0000      0.00    0.0000
  104                 -0.00    0.0000      0.00    0.0000
  105                  0.00    0.0000      0.00    0.0000
  106                  0.00    0.0000      0.00    0.0000
  107                 67.10    0.4182      0.31    0.0158
  11                  20.00    0.4986      0.98    0.0175
  112                 67.10    0.2471      0.09    0.0166
  113                  0.00    0.0000      0.00    0.0000
  117                 93.10    0.2519      0.08    0.0161
  118                 93.10    0.3429      0.16    0.0156
  119                 93.10    0.3429      0.16    0.0156
  12                   0.00    0.0000      0.00    0.0000
  120                  0.00    0.0000      0.00    0.0000
  122                  0.00    0.0000      0.00    0.0000
  123                 45.60    0.7148      1.42    0.0156
  126                  0.00    0.0000      0.00    0.0000
  127                  0.00    0.0000      0.00    0.0000
  128                 67.10    0.3350      0.18    0.0161
  131                 67.10    0.4182      0.31    0.0159
  132                 67.10    0.3350      0.18    0.0161
  134                  0.00    0.0000      0.00    0.0000
  136                  0.00    0.0000      0.00    0.0000
  137                  0.00    0.0000      0.00    0.0000
  138                  0.00    0.0000      0.00    0.0000
  139                  0.00    0.0000      0.00    0.0000
  14                  18.00    0.2822      0.27    0.0188
  142                  0.00    0.0000      0.00    0.0000
  143                  0.00    0.0000      0.00    0.0000
  144                  0.00    0.0000      0.00    0.0000
  145                 45.60    0.4431      0.45    0.0163
  148                 67.10    0.4182      0.31    0.0158
  149                 67.10    0.4182      0.31    0.0158
  15                   0.00    0.0000      0.00    0.0000
  150                 45.60    0.7148      1.42    0.0156
  151                 21.60    1.3263      9.83    0.0158
  156                  0.00    0.0000      0.00    0.0000
  16                  18.00    0.4487      0.81    0.0179
  160                 19.30    0.3025      0.30    0.0185
  162                  0.00    0.0000      0.00    0.0000
  171                  0.00    0.0000      0.00    0.0000
  172                  0.00    0.0000      0.00    0.0000
  175                  0.00    0.0000      0.00    0.0000
  181                 71.20    1.7749      9.76    0.0137
  183                  0.00    0.0000      0.00    0.0000
  184                  0.00    0.0000      0.00    0.0000
  185                  0.00    0.0000      0.00    0.0000
  19                   0.00    0.0000      0.00    0.0000
  2                   93.10    0.2519      0.08    0.0161
  20                  60.00    1.4957      7.15    0.0142
  21                   0.00    0.0000      0.00    0.0000
  22                 191.20    0.7041      0.59    0.0136
  23                  18.00    0.6996      2.36    0.0171
  24                  25.00    0.3919      0.48    0.0176
  25                  25.00    0.3919      0.48    0.0176
  26                 113.20    0.5652      0.47    0.0146
  27                   0.00    0.0000      0.00    0.0000
  28                  19.30    0.1875      0.10    0.0195
  29                  96.00    0.2597      0.08    0.0160
  3                   19.30    0.3025      0.30    0.0185
  30                   0.00    0.0000      0.00    0.0000
  31                 332.20    0.5425      0.23    0.0133
  32                 131.20    0.6550      0.61    0.0142
  33                 116.00    0.3138      0.11    0.0154
  34                 332.20    0.6899      0.40    0.0130
  36                   0.00    0.0000      0.00    0.0000
  37                  93.20    2.3233     15.94    0.0131
  38                   0.00    0.0000      0.00    0.0000
  4                   20.00    0.1246      0.04    0.0203
  40                   0.00    0.0000      0.00    0.0000
  41                  96.00    0.2597      0.08    0.0160
  42                  20.00    1.2280      8.56    0.0160
  43                 141.00    0.3815      0.16    0.0148
  44                   0.00    0.0000      0.00    0.0000
  45                  -0.00    0.0000      0.00    0.0000
  46                  20.00    0.4986      0.98    0.0175
  47                  96.00    0.3535      0.17    0.0155
  48                  96.00    0.3535      0.17    0.0155
  5                    0.00    0.0000      0.00    0.0000
  50                   0.00    0.0000      0.00    0.0000
  51                 332.20    0.6899      0.40    0.0130
  52                   0.00    0.0000      0.00    0.0000
  53                  26.00    0.1298      0.03    0.0197
  54                 466.60    0.4296      0.10    0.0131
  56                   0.00    0.0000      0.00    0.0000
  57                  71.20    1.1161      3.19    0.0143
  58                   0.00    0.0000      0.00    0.0000
  59                  71.20    1.1161      3.19    0.0143
  6                   93.20    0.5808      0.56    0.0148
  60                  24.00    0.5983      1.36    0.0169
  61                  19.30    0.1875      0.10    0.0195
  62                  19.30    0.1875      0.10    0.0195
  63                 373.50    0.6099      0.28    0.0130
  64                   0.00    0.0000      0.00    0.0000
  65                   0.00    0.0000      0.00    0.0000
  66                  41.30    0.2062      0.08    0.0179
  67                  19.30    0.1875      0.10    0.0195
  68                   0.00    0.0000      0.00    0.0000
  69                  41.30    0.2574      0.13    0.0174
  7                   60.00    0.9405      2.34    0.0148
  70                  19.30    0.3025      0.30    0.0185
  71                   0.00    0.0000      0.00    0.0000
  72                  -0.00    0.0000      0.00    0.0000
  73                   0.00    0.0000      0.00    0.0000
  74                 466.60    0.4296      0.10    0.0128
  76                   0.00    0.0000      0.00    0.0000
  77                   0.00    0.0000      0.00    0.0000
  78                  70.00    1.0973      3.09    0.0144
  79                   0.00    0.0000      0.00    0.0000
  8                    0.00    0.0000      0.00    0.0000
  80                  96.00    0.2597      0.08    0.0160
  81                   0.00    0.0000      0.00    0.0000
  82                   0.00    0.0000      0.00    0.0000
  83                  -0.00    0.0000      0.00    0.0000
  84                   0.00    0.0000      0.00    0.0000
  86                   0.00    0.0000      0.00    0.0000
  87                  22.00    1.3508     10.16    0.0157
  88                   0.00    0.0000      0.00    0.0000
  89                   0.00    0.0000      0.00    0.0000
  9                  537.80    0.4951      0.14    0.0128
  90                  19.30    0.3025      0.30    0.0185
  92                  26.00    0.1620      0.06    0.0189
  93                   0.00    0.0000      0.00    0.0000
  94                   0.00    0.0000      0.00    0.0000
  95                   0.00    0.0000      0.00    0.0000
  96                  -0.00    0.0000      0.00    0.0000
  97                   0.00    0.0000      0.00    0.0000
  98                   0.00    0.0000      0.00    0.0000
  99                   0.00    0.0000      0.00    0.0000
  55                   0.00    0.0000      0.00    0.0000
  101                  0.00    0.0000      0.00    0.0000
  108                  0.00    0.0000      0.00    0.0000
  109                  0.00    0.0000      0.00    0.0000
  49                  -0.00    0.0000      0.00    0.0000
  85                 -20.00    0.1246      0.04    0.0203
  91                   0.00    0.0000      0.00    0.0000
  110                  0.00    0.0000      0.00    0.0000
  111                  0.00    0.0000      0.00    0.0000
  17                   0.00    0.0000      0.00    0.0000
  18                   0.00    0.0000      0.00    0.0000
  39                   0.00    0.0000      0.00    0.0000
  75                   0.00    0.0000      0.00    0.0000
  114                 -0.00    0.0000      0.00    0.0000
   
  Analysis ended Tue Jun  1 20:55:08 2021
