  Page 1                                    Tue Jun  1 20:55:08 2021

  ******************************************************************
  *                           E P A N E T                          *
  *                   Hydraulic and Water Quality                  *
  *                   Analysis for Pipe Networks                   *
  *                         Version 2.00.12                        *
  ******************************************************************
  
  C:\Mario\Violada 
   
      Input Data File ................... /home/borja/Escritorio/nery/epanet-telecontrol/flowpath/tmp.inp
      Number of Junctions................ 146
      Number of Reservoirs............... 1
      Number of Tanks ................... 0
      Number of Pipes ................... 146
      Number of Pumps ................... 0
      Number of Valves .................. 0
      Headloss Formula .................. Darcy-Weisbach
      Hydraulic Timestep ................ 1.00 hrs
      Hydraulic Accuracy ................ 0.001000
      Status Check Frequency ............ 2
      Maximum Trials Checked ............ 10
      Damping Limit Threshold ........... 0.000000
      Maximum Trials .................... 40
      Quality Analysis .................. None
      Specific Gravity .................. 1.00
      Relative Kinematic Viscosity ...... 1.00
      Relative Chemical Diffusivity ..... 1.00
      Demand Multiplier ................. 1.00
      Total Duration .................... 0.00 hrs
      Reporting Criteria:
         Selected Nodes
         No Links
         with Velocity above 3.00 m/s
   
  Analysis begun Tue Jun  1 20:55:08 2021

   
  Node Results:
  ----------------------------------------------
                     Demand      Head  Pressure
  Node                  L/s         m         m
  ----------------------------------------------
  213               0.000000e+00   4.452650e+02   6.236499e+01
  241               0.000000e+00   4.393953e+02   6.615532e+01
  245               1.800000e+01   4.326201e+02   8.250007e+01
  256               3.450000e+01   4.474211e+02   8.121106e+01
  276               0.000000e+00   4.468052e+02   6.471517e+01
  277               2.600000e+01   4.418640e+02   6.160397e+01
  286               1.800000e+01   4.334209e+02   5.159087e+01
  296               0.000000e+00   4.425676e+02   6.140755e+01
   
   
  Link Results:
  --------------------------------------------------------
                       Flow  Velocity  Headloss  F-Factor
  Link                  L/s       m/s    /1000m          
  --------------------------------------------------------
  1                   40.70    1.0146      3.54    0.0152
  10                 121.00    1.1756      2.64    0.0136
  100                  0.00    0.0000      0.00    0.0000
  102                 42.00    0.6584      1.23    0.0158
  103                 42.00    1.0470      3.74    0.0151
  104                 62.30    0.9766      2.50    0.0147
  105                 23.00    0.5733      1.26    0.0170
  106                 78.10    1.9469     11.55    0.0135
  107                123.00    0.7665      0.93    0.0141
  11                  86.00    2.1438     13.76    0.0133
  112                343.30    1.2642      1.70    0.0123
  113                 70.70    1.1083      3.15    0.0143
  117                531.20    1.4372      1.80    0.0117
  118                343.30    1.2642      1.70    0.0123
  119                414.00    1.5246      2.40    0.0119
  12                  86.00    2.1438     13.76    0.0133
  120                 36.00    0.5643      0.93    0.0163
  122                  0.00    0.0000      0.00    0.0000
  123                  0.00    0.0000      0.00    0.0000
  126                 18.00    0.4487      0.81    0.0179
  127                 18.00    0.4487      0.81    0.0179
  128                315.30    1.5742      3.04    0.0122
  131                279.30    1.7406      4.16    0.0122
  132                315.30    1.5742      3.04    0.0122
  134                  0.00    0.0000      0.00    0.0000
  136                 85.30    0.8288      1.40    0.0145
  137                 23.00    1.4122     11.02    0.0156
  138                 51.00    1.2713      5.32    0.0146
  139                  0.00    0.0000      0.00    0.0000
  14                  22.00    0.3449      0.38    0.0180
  142                -43.00    2.6403     34.30    0.0139
  143                  0.00    0.0000      0.00    0.0000
  144                 18.00    0.6996      2.36    0.0171
  145                 18.00    0.1749      0.09    0.0198
  148                 87.00    0.5422      0.50    0.0150
  149                105.00    0.6544      0.70    0.0145
  15                 104.00    1.6302      6.35    0.0134
  150                  0.00    0.0000      0.00    0.0000
  151                  0.00    0.0000      0.00    0.0000
  156                  0.00    0.0000      0.00    0.0000
  16                  22.00    0.5484      1.17    0.0172
  160                 66.30    1.0393      2.80    0.0145
  162                 21.00    0.3292      0.35    0.0182
  171                 26.00    1.0105      4.58    0.0159
  172                 26.00    0.4076      0.52    0.0174
  175                  0.00    0.0000      0.00    0.0000
  181                  0.00    0.0000      0.00    0.0000
  183                  0.00    0.0000      0.00    0.0000
  184                 18.00    0.2822      0.27    0.0188
  185                 18.00    0.2822      0.27    0.0188
  19                   0.00    0.0000      0.00    0.0000
  2                  531.20    1.4372      1.80    0.0117
  20                   0.00    0.0000      0.00    0.0000
  21                  18.00    0.6996      2.36    0.0171
  22                 303.40    1.1173      1.36    0.0126
  23                  22.00    0.8550      3.39    0.0165
  24                  18.00    0.2822      0.27    0.0188
  25                  18.00    0.2822      0.27    0.0188
  26                 262.80    1.3121      2.18    0.0125
  27                  18.00    0.6996      2.36    0.0171
  28                 133.80    1.3000      3.17    0.0133
  29                 106.00    0.2868      0.10    0.0157
  3                   84.30    1.3214      4.33    0.0139
  30                  29.00    0.4546      0.63    0.0170
  31                 508.90    0.8310      0.49    0.0123
  32                 284.80    1.4219      2.52    0.0124
  33                 140.50    0.3801      0.16    0.0148
  34                 461.90    0.9593      0.73    0.0123
  36                 117.20    1.8372      7.90    0.0131
  37                   0.00    0.0000      0.00    0.0000
  38                  18.00    0.1122      0.03    0.0208
  4                  262.80    1.6378      3.72    0.0123
  40                  18.00    0.6996      2.36    0.0171
  41                 140.50    0.3801      0.16    0.0148
  42                  -0.00    0.0000      0.00    0.0000
  43                 158.50    0.4288      0.20    0.0145
  44                   0.00    0.0000      0.00    0.0000
  45                  -0.00    0.0000      0.00    0.0000
  46                   0.00    0.0000      0.00    0.0000
  47                  88.00    0.3241      0.14    0.0158
  48                  88.00    0.3241      0.14    0.0157
  5                   22.00    1.3508     10.16    0.0157
  50                  18.00    0.6996      2.36    0.0171
  51                 490.90    1.0195      0.82    0.0121
  52                  18.00    1.1052      7.07    0.0164
  53                  18.00    0.0899      0.02    0.0213
  54                1241.02    1.1425      0.63    0.0111
  56                   0.00    0.0000      0.00    0.0000
  57                  38.30    0.6004      1.04    0.0161
  58                   0.00    0.0000      0.00    0.0000
  59                  38.30    0.6004      1.04    0.0161
  6                    0.00    0.0000      0.00    0.0000
  60                   0.00    0.0000      0.00    0.0000
  61                 156.70    1.5225      4.23    0.0130
  62                 105.40    1.0241      2.05    0.0139
  63                 688.72    1.1247      0.85    0.0117
  64                  28.40    1.7438     16.14    0.0150
  65                  18.00    1.1052      7.08    0.0164
  66                 179.82    0.8978      1.09    0.0134
  67                 105.40    1.0241      2.05    0.0139
  68                  26.00    1.5965     13.75    0.0153
  69                 156.70    0.9766      1.45    0.0135
  7                   18.60    0.2916      0.28    0.0187
  70                  45.30    0.7101      1.41    0.0156
  71                  26.80    1.6456     14.53    0.0152
  72                  18.00    1.1052      7.08    0.0164
  73                   0.00    0.0000      0.00    0.0000
  74                1219.92    1.1231      0.61    0.0111
  76                  18.00    0.1749      0.09    0.0198
  77                   0.00    0.0000      0.00    0.0000
  78                  70.00    1.0973      3.09    0.0144
  79                   0.00    0.0000      0.00    0.0000
  8                   18.00    1.1052      7.08    0.0164
  80                 106.00    0.2868      0.10    0.0157
  81                   0.00    0.0000      0.00    0.0000
  82                  18.00    0.1122      0.03    0.0210
  83                   0.00    0.0000      0.00    0.0000
  84                 117.20    1.8372      7.90    0.0131
  86                  21.10    1.2956      9.43    0.0159
  87                   0.00    0.0000      0.00    0.0000
  88                   0.00    0.0000      0.00    0.0000
  89                  29.00    1.1271      5.57    0.0156
  9                 1279.32    1.1778      0.66    0.0111
  90                  84.30    1.3214      4.33    0.0139
  92                   0.00    0.0000      0.00    0.0000
  93                   0.00    0.0000      0.00    0.0000
  94                   0.00    0.0000      0.00    0.0000
  95                  18.00    0.6996      2.36    0.0171
  96                  43.00    1.0719      3.90    0.0151
  97                  23.00    1.4122     11.02    0.0156
  98                   0.00    0.0000      0.00    0.0000
  99                  23.20    1.4245     11.19    0.0156
  55                 156.30    1.5186      4.21    0.0130
  101                 20.00    1.2280      8.56    0.0160
  108                136.30    1.3243      3.28    0.0133
  109                  0.00    0.0000      0.00    0.0000
  49                 -18.00    0.1749      0.09    0.0199
  85                -244.80    1.5256      3.27    0.0125
  91                  -0.00    0.0000      0.00    0.0000
  110                 18.00    1.1052      7.08    0.0164
  111                  0.00    0.0000      0.00    0.0000
  17                  -0.00    0.0000      0.00    0.0000
  18                  18.00    1.1052      7.08    0.0164
  39                   0.00    0.0000      0.00    0.0000
  75                   0.00    0.0000      0.00    0.0000
  114                 -0.00    0.0000      0.00    0.0000
   
  Analysis ended Tue Jun  1 20:55:08 2021
