  Page 1                                    Tue Jun  1 20:55:12 2021

  ******************************************************************
  *                           E P A N E T                          *
  *                   Hydraulic and Water Quality                  *
  *                   Analysis for Pipe Networks                   *
  *                         Version 2.00.12                        *
  ******************************************************************
  
  C:\Mario\Violada 
   
      Input Data File ................... /home/borja/Escritorio/nery/epanet-telecontrol/flowpath/tmp.inp
      Number of Junctions................ 146
      Number of Reservoirs............... 1
      Number of Tanks ................... 0
      Number of Pipes ................... 146
      Number of Pumps ................... 0
      Number of Valves .................. 0
      Headloss Formula .................. Darcy-Weisbach
      Hydraulic Timestep ................ 1.00 hrs
      Hydraulic Accuracy ................ 0.001000
      Status Check Frequency ............ 2
      Maximum Trials Checked ............ 10
      Damping Limit Threshold ........... 0.000000
      Maximum Trials .................... 40
      Quality Analysis .................. None
      Specific Gravity .................. 1.00
      Relative Kinematic Viscosity ...... 1.00
      Relative Chemical Diffusivity ..... 1.00
      Demand Multiplier ................. 1.00
      Total Duration .................... 0.00 hrs
      Reporting Criteria:
         Selected Nodes
         No Links
         with Velocity above 3.00 m/s
   
  Analysis begun Tue Jun  1 20:55:12 2021

   
  Node Results:
  ----------------------------------------------
                     Demand      Head  Pressure
  Node                  L/s         m         m
  ----------------------------------------------
  213               0.000000e+00   4.464682e+02   6.356819e+01
  241               2.800000e+01   4.294262e+02   5.618621e+01
  245               0.000000e+00   4.359122e+02   8.579222e+01
  256               3.450000e+01   4.460619e+02   7.985185e+01
  276               0.000000e+00   4.453101e+02   6.322005e+01
  277               2.600000e+01   4.443655e+02   6.410551e+01
  286               1.800000e+01   4.334138e+02   5.158377e+01
  296               2.600000e+01   4.377760e+02   5.661603e+01
   
   
  Link Results:
  --------------------------------------------------------
                       Flow  Velocity  Headloss  F-Factor
  Link                  L/s       m/s    /1000m          
  --------------------------------------------------------
  1                   40.70    1.0146      3.54    0.0152
  10                 188.00    1.8266      5.90    0.0126
  100                  0.00    0.0000      0.00    0.0000
  102                 50.00    0.7838      1.68    0.0153
  103                 50.00    1.2464      5.13    0.0147
  104                 19.30    0.3025      0.30    0.0185
  105                 47.00    1.1716      4.59    0.0148
  106                 78.10    1.9469     11.55    0.0135
  107                131.00    0.8164      1.05    0.0139
  11                 114.00    2.8418     23.04    0.0127
  112                271.30    0.9991      1.11    0.0128
  113                 40.70    0.6380      1.16    0.0159
  117                447.20    1.2099      1.31    0.0121
  118                271.30    0.9991      1.11    0.0128
  119                312.00    1.1490      1.43    0.0125
  12                  86.00    2.1438     13.76    0.0133
  120                 18.00    0.2822      0.27    0.0188
  122                  0.00    0.0000      0.00    0.0000
  123                  0.00    0.0000      0.00    0.0000
  126                 18.00    0.4487      0.81    0.0179
  127                 18.00    0.4487      0.81    0.0179
  128                243.30    1.2147      1.89    0.0127
  131                225.30    1.4041      2.81    0.0126
  132                243.30    1.2147      1.89    0.0127
  134                  0.00    0.0000      0.00    0.0000
  136                 66.30    0.6442      0.89    0.0152
  137                 23.00    1.4122     11.02    0.0156
  138                 28.00    0.6980      1.80    0.0164
  139                  0.00    0.0000      0.00    0.0000
  14                  40.00    0.6270      1.12    0.0160
  142                  0.00    0.0000      0.00    0.0000
  143                  0.00    0.0000      0.00    0.0000
  144                 26.00    1.0105      4.58    0.0159
  145                 18.00    0.1749      0.09    0.0198
  148                 95.00    0.5920      0.58    0.0148
  149                113.00    0.7042      0.80    0.0143
  15                  86.00    1.3481      4.49    0.0138
  150                  0.00    0.0000      0.00    0.0000
  151                  0.00    0.0000      0.00    0.0000
  156                  0.00    0.0000      0.00    0.0000
  16                  40.00    0.9971      3.43    0.0153
  160                 47.00    0.7367      1.50    0.0155
  162                 21.00    0.3292      0.35    0.0182
  171                 26.00    1.0105      4.58    0.0159
  172                 26.00    0.4076      0.52    0.0174
  175                  0.00    0.0000      0.00    0.0000
  181                 71.20    1.7749      9.76    0.0137
  183                  0.00    0.0000      0.00    0.0000
  184                 18.00    0.2822      0.27    0.0188
  185                 18.00    0.2822      0.27    0.0188
  19                  50.00    1.9432     14.97    0.0141
  2                  447.20    1.2099      1.31    0.0121
  20                   0.00    0.0000      0.00    0.0000
  21                  18.00    0.6996      2.36    0.0171
  22                 470.40    1.7323      3.03    0.0117
  23                  40.00    1.5546      9.98    0.0147
  24                  18.00    0.2822      0.27    0.0188
  25                  18.00    0.2822      0.27    0.0188
  26                 411.80    2.0559      4.96    0.0116
  27                  18.00    0.6996      2.36    0.0171
  28                  68.10    0.6617      0.93    0.0151
  29                 182.50    0.4938      0.26    0.0141
  3                   47.00    0.7367      1.50    0.0155
  30                  79.00    1.2384      3.85    0.0140
  31                 784.40    1.2809      1.08    0.0114
  32                 451.80    2.2556      5.88    0.0115
  33                 217.00    0.5871      0.35    0.0137
  34                 705.40    1.4649      1.59    0.0114
  36                 117.20    1.8372      7.90    0.0131
  37                   0.00    0.0000      0.00    0.0000
  38                  18.00    0.1122      0.03    0.0208
  4                  311.80    1.9432      5.09    0.0120
  40                  18.00    0.6996      2.36    0.0171
  41                 217.00    0.5871      0.35    0.0137
  42                   0.00    0.0000      0.00    0.0000
  43                 235.00    0.6358      0.41    0.0135
  44                  41.80    1.0420      3.71    0.0152
  45                  41.80    1.6245     10.81    0.0146
  46                   0.00    0.0000      0.00    0.0000
  47                  92.70    0.3414      0.16    0.0156
  48                  92.70    0.3414      0.16    0.0156
  5                   22.00    1.3508     10.16    0.0157
  50                   0.00    0.0000      0.00    0.0000
  51                 784.40    1.6290      1.94    0.0112
  52                  -0.00    0.0000      0.00    0.0000
  53                  44.00    0.2197      0.09    0.0176
  54                1388.82    1.2786      0.77    0.0109
  56                  50.00    0.7838      1.68    0.0153
  57                 109.50    1.7165      6.98    0.0132
  58                   0.00    0.0000      0.00    0.0000
  59                 109.50    1.7165      6.98    0.0132
  6                  100.00    0.6232      0.64    0.0146
  60                   0.00    0.0000      0.00    0.0000
  61                  91.00    0.8842      1.57    0.0143
  62                  68.10    0.6617      0.93    0.0151
  63                 920.52    1.5032      1.45    0.0111
  64                   0.00    0.0000      0.00    0.0000
  65                  18.00    1.1052      7.08    0.0164
  66                 136.12    0.6796      0.66    0.0141
  67                  68.10    0.6617      0.93    0.0151
  68                  26.00    1.5965     13.75    0.0153
  69                 113.00    0.7042      0.80    0.0143
  7                   18.60    0.2916      0.28    0.0187
  70                  26.00    0.4076      0.52    0.0174
  71                  26.80    1.6456     14.53    0.0152
  72                  18.00    1.1052      7.08    0.0164
  73                   0.00    0.0000      0.00    0.0000
  74                1367.72    1.2592      0.75    0.0109
  76                  48.00    0.4664      0.49    0.0162
  77                   0.00    0.0000      0.00    0.0000
  78                   0.00    0.0000      0.00    0.0000
  79                   0.00    0.0000      0.00    0.0000
  8                    0.00    0.0000      0.00    0.0000
  80                 140.70    0.3807      0.16    0.0148
  81                   0.00    0.0000      0.00    0.0000
  82                  18.00    0.1122      0.03    0.0203
  83                   0.00    0.0000      0.00    0.0000
  84                 135.20    2.1193     10.25    0.0128
  86                  21.10    1.2956      9.43    0.0159
  87                  22.00    1.3508     10.16    0.0157
  88                   0.00    0.0000      0.00    0.0000
  89                  29.00    1.1271      5.57    0.0156
  9                 1498.32    1.3794      0.89    0.0108
  90                  47.00    0.7367      1.50    0.0155
  92                  26.00    0.1620      0.06    0.0189
  93                  26.00    1.5965     13.75    0.0153
  94                   0.00    0.0000      0.00    0.0000
  95                  18.00    0.6996      2.36    0.0171
  96                   0.00    0.0000      0.00    0.0000
  97                   0.00    0.0000      0.00    0.0000
  98                   0.00    0.0000      0.00    0.0000
  99                  23.20    1.4245     11.19    0.0156
  55                  94.30    0.9162      1.68    0.0142
  101                  0.00    0.0000      0.00    0.0000
  108                 94.30    0.9162      1.68    0.0142
  109                  0.00    0.0000      0.00    0.0000
  49                 -48.00    0.4664      0.49    0.0161
  85                -293.80    1.8310      4.56    0.0121
  91                 -39.00    0.6113      1.07    0.0161
  110                  0.00    0.0000      0.00    0.0000
  111                  0.00    0.0000      0.00    0.0000
  17                   0.00    0.0000      0.00    0.0000
  18                  18.00    1.1052      7.08    0.0164
  39                   0.00    0.0000      0.00    0.0000
  75                   0.00    0.0000      0.00    0.0000
  114                -28.00    1.0882      5.23    0.0157
   
  Analysis ended Tue Jun  1 20:55:12 2021
