  Page 1                                    Tue Jun  1 20:55:15 2021

  ******************************************************************
  *                           E P A N E T                          *
  *                   Hydraulic and Water Quality                  *
  *                   Analysis for Pipe Networks                   *
  *                         Version 2.00.12                        *
  ******************************************************************
  
  C:\Mario\Violada 
   
      Input Data File ................... /home/borja/Escritorio/nery/epanet-telecontrol/flowpath/tmp.inp
      Number of Junctions................ 146
      Number of Reservoirs............... 1
      Number of Tanks ................... 0
      Number of Pipes ................... 146
      Number of Pumps ................... 0
      Number of Valves .................. 0
      Headloss Formula .................. Darcy-Weisbach
      Hydraulic Timestep ................ 1.00 hrs
      Hydraulic Accuracy ................ 0.001000
      Status Check Frequency ............ 2
      Maximum Trials Checked ............ 10
      Damping Limit Threshold ........... 0.000000
      Maximum Trials .................... 40
      Quality Analysis .................. None
      Specific Gravity .................. 1.00
      Relative Kinematic Viscosity ...... 1.00
      Relative Chemical Diffusivity ..... 1.00
      Demand Multiplier ................. 1.00
      Total Duration .................... 0.00 hrs
      Reporting Criteria:
         Selected Nodes
         No Links
         with Velocity above 3.00 m/s
   
  Analysis begun Tue Jun  1 20:55:15 2021

   
  Node Results:
  ----------------------------------------------
                     Demand      Head  Pressure
  Node                  L/s         m         m
  ----------------------------------------------
  213               0.000000e+00   4.488970e+02   6.599699e+01
  241               0.000000e+00   4.488993e+02   7.565926e+01
  245               0.000000e+00   4.488993e+02   9.877926e+01
  256               0.000000e+00   4.489396e+02   8.272959e+01
  276               0.000000e+00   4.489396e+02   6.684959e+01
  277               0.000000e+00   4.488857e+02   6.862568e+01
  286               0.000000e+00   4.489794e+02   6.714937e+01
  296               0.000000e+00   4.487773e+02   6.761726e+01
   
   
  Link Results:
  --------------------------------------------------------
                       Flow  Velocity  Headloss  F-Factor
  Link                  L/s       m/s    /1000m          
  --------------------------------------------------------
  1                    0.00    0.0000      0.00    0.0000
  10                   0.00    0.0000      0.00    0.0000
  100                 24.00    0.5983      1.36    0.0169
  102                  0.00    0.0000      0.00    0.0000
  103                 -0.00    0.0000      0.00    0.0000
  104                  0.00    0.0000      0.00    0.0000
  105                  0.00    0.0000      0.00    0.0000
  106                  0.00    0.0000      0.00    0.0000
  107                 56.00    0.3490      0.22    0.0164
  11                   0.00    0.0000      0.00    0.0000
  112                 56.00    0.2062      0.06    0.0173
  113                  0.00    0.0000      0.00    0.0000
  117                 56.00    0.1515      0.03    0.0178
  118                 56.00    0.2062      0.06    0.0173
  119                 56.00    0.2062      0.06    0.0168
  12                   0.00    0.0000      0.00    0.0000
  120                  0.00    0.0000      0.00    0.0000
  122                  0.00    0.0000      0.00    0.0000
  123                 24.00    0.3762      0.45    0.0177
  126                  0.00    0.0000      0.00    0.0000
  127                  0.00    0.0000      0.00    0.0000
  128                 56.00    0.2796      0.13    0.0167
  131                 56.00    0.3490      0.22    0.0163
  132                 56.00    0.2796      0.13    0.0167
  134                  0.00    0.0000      0.00    0.0000
  136                  0.00    0.0000      0.00    0.0000
  137                 -0.00    0.0000      0.00    0.0000
  138                 -0.00    0.0000      0.00    0.0000
  139                  0.00    0.0000      0.00    0.0000
  14                  33.00    0.5173      0.79    0.0166
  142                  0.00    0.0000      0.00    0.0000
  143                  0.00    0.0000      0.00    0.0000
  144                 -0.00    0.0000      0.00    0.0000
  145                 56.00    0.5441      0.65    0.0157
  148                 56.00    0.3490      0.22    0.0164
  149                 56.00    0.3490      0.22    0.0164
  15                   0.00    0.0000      0.00    0.0000
  150                 24.00    0.3762      0.45    0.0177
  151                  0.00    0.0000      0.00    0.0000
  156                  0.00    0.0000      0.00    0.0000
  16                   0.00    0.0000      0.00    0.0000
  160                  0.00    0.0000      0.00    0.0000
  162                  0.00    0.0000      0.00    0.0000
  171                  0.00    0.0000      0.00    0.0000
  172                  0.00    0.0000      0.00    0.0000
  175                  0.00    0.0000      0.00    0.0000
  181                  0.00    0.0000      0.00    0.0000
  183                  0.00    0.0000      0.00    0.0000
  184                  0.00    0.0000      0.00    0.0000
  185                 32.00    0.5016      0.75    0.0167
  19                  50.00    1.9432     14.97    0.0141
  2                   56.00    0.1515      0.03    0.0178
  20                  -0.00    0.0000      0.00    0.0000
  21                   0.00    0.0000      0.00    0.0000
  22                  33.00    0.1215      0.02    0.0192
  23                   0.00    0.0000      0.00    0.0000
  24                  25.00    0.3919      0.48    0.0176
  25                  25.00    0.3919      0.48    0.0176
  26                   0.00    0.0000      0.00    0.0000
  27                   0.00    0.0000      0.00    0.0000
  28                  28.40    0.2759      0.19    0.0180
  29                   0.00    0.0000      0.00    0.0000
  3                    0.00    0.0000      0.00    0.0000
  30                  50.00    0.7838      1.68    0.0153
  31                 108.00    0.1764      0.03    0.0164
  32                  33.00    0.1648      0.05    0.0187
  33                   0.00    0.0000      0.00    0.0000
  34                  58.00    0.1205      0.02    0.0182
  36                   0.00    0.0000      0.00    0.0000
  37                   0.00    0.0000      0.00    0.0000
  38                   0.00    0.0000      0.00    0.0000
  4                    0.00    0.0000      0.00    0.0000
  40                   0.00    0.0000      0.00    0.0000
  41                   0.00    0.0000      0.00    0.0000
  42                   0.00    0.0000      0.00    0.0000
  43                  25.00    0.0676      0.01    0.0209
  44                   0.00    0.0000      0.00    0.0000
  45                   0.00    0.0000      0.00    0.0000
  46                   0.00    0.0000      0.00    0.0000
  47                   0.00    0.0000      0.00    0.0000
  48                   0.00    0.0000      0.00    0.0000
  5                    0.00    0.0000      0.00    0.0000
  50                   0.00    0.0000      0.00    0.0000
  51                 108.00    0.2243      0.05    0.0163
  52                   0.00    0.0000      0.00    0.0000
  53                   0.00    0.0000      0.00    0.0000
  54                 192.40    0.1771      0.02    0.0154
  56                  50.00    0.7838      1.68    0.0153
  57                   0.00    0.0000      0.00    0.0000
  58                   0.00    0.0000      0.00    0.0000
  59                   0.00    0.0000      0.00    0.0000
  6                    0.00    0.0000      0.00    0.0000
  60                  24.00    0.5983      1.36    0.0169
  61                  28.40    0.2759      0.19    0.0180
  62                   0.00    0.0000      0.00    0.0000
  63                 136.40    0.2227      0.04    0.0156
  64                  28.40    1.7438     16.14    0.0150
  65                   0.00    0.0000      0.00    0.0000
  66                  28.40    0.1418      0.04    0.0196
  67                   0.00    0.0000      0.00    0.0000
  68                  -0.00    0.0000      0.00    0.0000
  69                  28.40    0.1770      0.07    0.0188
  7                   -0.00    0.0000      0.00    0.0000
  70                   0.00    0.0000      0.00    0.0000
  71                   0.00    0.0000      0.00    0.0000
  72                   0.00    0.0000      0.00    0.0000
  73                   0.00    0.0000      0.00    0.0000
  74                 192.40    0.1771      0.02    0.0171
  76                   0.00    0.0000      0.00    0.0000
  77                   0.00    0.0000      0.00    0.0000
  78                   0.00    0.0000      0.00    0.0000
  79                   0.00    0.0000      0.00    0.0000
  8                    0.00    0.0000      0.00    0.0000
  80                   0.00    0.0000      0.00    0.0000
  81                  32.00    0.7977      2.29    0.0160
  82                   0.00    0.0000      0.00    0.0000
  83                   0.00    0.0000      0.00    0.0000
  84                   0.00    0.0000      0.00    0.0000
  86                   0.00    0.0000      0.00    0.0000
  87                   0.00    0.0000      0.00    0.0000
  88                   0.00    0.0000      0.00    0.0000
  89                   0.00    0.0000      0.00    0.0000
  9                  192.40    0.1771      0.02    0.0156
  90                   0.00    0.0000      0.00    0.0000
  92                   0.00    0.0000      0.00    0.0000
  93                   0.00    0.0000      0.00    0.0000
  94                   0.00    0.0000      0.00    0.0000
  95                   0.00    0.0000      0.00    0.0000
  96                  -0.00    0.0000      0.00    0.0000
  97                  -0.00    0.0000      0.00    0.0000
  98                   0.00    0.0000      0.00    0.0000
  99                   0.00    0.0000      0.00    0.0000
  55                   0.00    0.0000      0.00    0.0000
  101                  0.00    0.0000      0.00    0.0000
  108                  0.00    0.0000      0.00    0.0000
  109                 32.00    0.7977      2.29    0.0160
  49                  -0.00    0.0000      0.00    0.0000
  85                  -0.00    0.0000      0.00    0.0000
  91                  -0.00    0.0000      0.00    0.0000
  110                  0.00    0.0000      0.00    0.0000
  111                  0.00    0.0000      0.00    0.0000
  17                  32.00    1.2437      6.66    0.0153
  18                   0.00    0.0000      0.00    0.0000
  39                   0.00    0.0000      0.00    0.0000
  75                   0.00    0.0000      0.00    0.0000
  114                 -0.00    0.0000      0.00    0.0000
   
  Analysis ended Tue Jun  1 20:55:15 2021
