  Page 1                                    Tue Jun  1 20:55:26 2021

  ******************************************************************
  *                           E P A N E T                          *
  *                   Hydraulic and Water Quality                  *
  *                   Analysis for Pipe Networks                   *
  *                         Version 2.00.12                        *
  ******************************************************************
  
  C:\Mario\Violada 
   
      Input Data File ................... /home/borja/Escritorio/nery/epanet-telecontrol/flowpath/tmp.inp
      Number of Junctions................ 146
      Number of Reservoirs............... 1
      Number of Tanks ................... 0
      Number of Pipes ................... 146
      Number of Pumps ................... 0
      Number of Valves .................. 0
      Headloss Formula .................. Darcy-Weisbach
      Hydraulic Timestep ................ 1.00 hrs
      Hydraulic Accuracy ................ 0.001000
      Status Check Frequency ............ 2
      Maximum Trials Checked ............ 10
      Damping Limit Threshold ........... 0.000000
      Maximum Trials .................... 40
      Quality Analysis .................. None
      Specific Gravity .................. 1.00
      Relative Kinematic Viscosity ...... 1.00
      Relative Chemical Diffusivity ..... 1.00
      Demand Multiplier ................. 1.00
      Total Duration .................... 0.00 hrs
      Reporting Criteria:
         Selected Nodes
         No Links
         with Velocity above 3.00 m/s
   
  Analysis begun Tue Jun  1 20:55:26 2021

   
  Node Results:
  ----------------------------------------------
                     Demand      Head  Pressure
  Node                  L/s         m         m
  ----------------------------------------------
  213               0.000000e+00   4.489209e+02   6.602087e+01
  241               0.000000e+00   4.489429e+02   7.570287e+01
  245               0.000000e+00   4.489429e+02   9.882287e+01
  256               0.000000e+00   4.489083e+02   8.269827e+01
  276               0.000000e+00   4.488245e+02   6.673447e+01
  277               0.000000e+00   4.484571e+02   6.819705e+01
  286               0.000000e+00   4.483803e+02   6.655029e+01
  296               0.000000e+00   4.489206e+02   6.776062e+01
   
   
  Link Results:
  --------------------------------------------------------
                       Flow  Velocity  Headloss  F-Factor
  Link                  L/s       m/s    /1000m          
  --------------------------------------------------------
  1                   23.20    0.5783      1.28    0.0170
  10                   0.00    0.0000      0.00    0.0000
  100                  0.00    0.0000      0.00    0.0000
  102                  0.00    0.0000      0.00    0.0000
  103                  0.00    0.0000      0.00    0.0000
  104                  0.00    0.0000      0.00    0.0000
  105                 24.00    0.5983      1.36    0.0169
  106                  0.00    0.0000      0.00    0.0000
  107                  0.00    0.0000      0.00    0.0000
  11                   0.00    0.0000      0.00    0.0000
  112                 24.00    0.0884      0.01    0.0207
  113                 23.20    0.3637      0.42    0.0178
  117                 86.30    0.2335      0.07    0.0163
  118                 24.00    0.0884      0.01    0.0208
  119                 47.20    0.1738      0.05    0.0174
  12                   0.00    0.0000      0.00    0.0000
  120                  0.00    0.0000      0.00    0.0000
  122                  0.00    0.0000      0.00    0.0000
  123                  0.00    0.0000      0.00    0.0000
  126                  0.00    0.0000      0.00    0.0000
  127                  0.00    0.0000      0.00    0.0000
  128                 24.00    0.1198      0.03    0.0200
  131                 24.00    0.1496      0.05    0.0207
  132                 24.00    0.1198      0.03    0.0199
  134                  0.00    0.0000      0.00    0.0000
  136                 24.00    0.2332      0.14    0.0186
  137                  0.00    0.0000      0.00    0.0000
  138                  0.00    0.0000      0.00    0.0000
  139                  0.00    0.0000      0.00    0.0000
  14                   0.00    0.0000      0.00    0.0000
  142                 -0.00    0.0000      0.00    0.0000
  143                  0.00    0.0000      0.00    0.0000
  144                 -0.00    0.0000      0.00    0.0000
  145                  0.00    0.0000      0.00    0.0000
  148                  0.00    0.0000      0.00    0.0000
  149                  0.00    0.0000      0.00    0.0000
  15                   0.00    0.0000      0.00    0.0000
  150                  0.00    0.0000      0.00    0.0000
  151                  0.00    0.0000      0.00    0.0000
  156                  0.00    0.0000      0.00    0.0000
  16                   0.00    0.0000      0.00    0.0000
  160                 21.00    0.3292      0.35    0.0182
  162                 21.00    0.3292      0.35    0.0182
  171                  0.00    0.0000      0.00    0.0000
  172                  0.00    0.0000      0.00    0.0000
  175                  0.00    0.0000      0.00    0.0000
  181                 -0.00    0.0000      0.00    0.0000
  183                  0.00    0.0000      0.00    0.0000
  184                  0.00    0.0000      0.00    0.0000
  185                  0.00    0.0000      0.00    0.0000
  19                   0.00    0.0000      0.00    0.0000
  2                  108.30    0.2930      0.10    0.0156
  20                  -0.00    0.0000      0.00    0.0000
  21                  -0.00    0.0000      0.00    0.0000
  22                   0.00    0.0000      0.00    0.0000
  23                   0.00    0.0000      0.00    0.0000
  24                  -0.00    0.0000      0.00    0.0000
  25                  -0.00    0.0000      0.00    0.0000
  26                   0.00    0.0000      0.00    0.0000
  27                  -0.00    0.0000      0.00    0.0000
  28                  42.10    0.4091      0.39    0.0166
  29                  70.00    0.1894      0.05    0.0170
  3                   21.00    0.3292      0.35    0.0182
  30                   0.00    0.0000      0.00    0.0000
  31                  70.00    0.1143      0.01    0.0179
  32                   0.00    0.0000      0.00    0.0000
  33                  70.00    0.1894      0.05    0.0171
  34                  70.00    0.1454      0.02    0.0175
  36                  39.10    0.6129      1.08    0.0160
  37                   0.00    0.0000      0.00    0.0000
  38                   0.00    0.0000      0.00    0.0000
  4                    0.00    0.0000      0.00    0.0000
  40                   0.00    0.0000      0.00    0.0000
  41                  70.00    0.1894      0.05    0.0170
  42                  -0.00    0.0000      0.00    0.0000
  43                  70.00    0.1894      0.05    0.0170
  44                   0.00    0.0000      0.00    0.0000
  45                  -0.00    0.0000      0.00    0.0000
  46                   0.00    0.0000      0.00    0.0000
  47                  70.00    0.2578      0.09    0.0165
  48                  70.00    0.2578      0.10    0.0165
  5                    0.00    0.0000      0.00    0.0000
  50                   0.00    0.0000      0.00    0.0000
  51                  70.00    0.1454      0.03    0.0186
  52                  -0.00    0.0000      0.00    0.0000
  53                   0.00    0.0000      0.00    0.0000
  54                 306.81    0.2825      0.05    0.0142
  56                   0.00    0.0000      0.00    0.0000
  57                   0.00    0.0000      0.00    0.0000
  58                  -0.00    0.0000      0.00    0.0000
  59                  -0.00    0.0000      0.00    0.0000
  6                    0.00    0.0000      0.00    0.0000
  60                   0.00    0.0000      0.00    0.0000
  61                  42.10    0.4091      0.39    0.0166
  62                  42.10    0.4090      0.39    0.0166
  63                 112.10    0.1831      0.03    0.0163
  64                   0.00    0.0000      0.00    0.0000
  65                   0.00    0.0000      0.00    0.0000
  66                  42.10    0.2102      0.08    0.0178
  67                  42.10    0.4090      0.39    0.0166
  68                   0.00    0.0000      0.00    0.0000
  69                  42.10    0.2624      0.13    0.0173
  7                    0.00    0.0000      0.00    0.0000
  70                   0.00    0.0000      0.00    0.0000
  71                   0.00    0.0000      0.00    0.0000
  72                   0.00    0.0000      0.00    0.0000
  73                  86.40    1.3544      4.53    0.0138
  74                 306.81    0.2825      0.05    0.0135
  76                   0.00    0.0000      0.00    0.0000
  77                   0.00    0.0000      0.00    0.0000
  78                  70.00    1.0973      3.09    0.0144
  79                   0.00    0.0000      0.00    0.0000
  8                    0.00    0.0000      0.00    0.0000
  80                  70.00    0.1894      0.05    0.0170
  81                   0.00    0.0000      0.00    0.0000
  82                   0.00    0.0000      0.00    0.0000
  83                   0.00    0.0000      0.00    0.0000
  84                  39.10    0.6129      1.08    0.0160
  86                  21.10    1.2956      9.43    0.0159
  87                   0.00    0.0000      0.00    0.0000
  88                   0.00    0.0000      0.00    0.0000
  89                   0.00    0.0000      0.00    0.0000
  9                  306.81    0.2825      0.05    0.0141
  90                  21.00    0.3292      0.35    0.0182
  92                   0.00    0.0000      0.00    0.0000
  93                   0.00    0.0000      0.00    0.0000
  94                   0.00    0.0000      0.00    0.0000
  95                   0.00    0.0000      0.00    0.0000
  96                   0.00    0.0000      0.00    0.0000
  97                   0.00    0.0000      0.00    0.0000
  98                   0.00    0.0000      0.00    0.0000
  99                  23.20    1.4245     11.19    0.0156
  55                  24.00    0.2332      0.14    0.0186
  101                  0.00    0.0000      0.00    0.0000
  108                 24.00    0.2332      0.14    0.0186
  109                  0.00    0.0000      0.00    0.0000
  49                  -0.00    0.0000      0.00    0.0000
  85                  -0.00    0.0000      0.00    0.0000
  91                  -0.00    0.0000      0.00    0.0000
  110                  0.00    0.0000      0.00    0.0000
  111                  0.00    0.0000      0.00    0.0000
  17                   0.00    0.0000      0.00    0.0000
  18                   0.00    0.0000      0.00    0.0000
  39                   0.00    0.0000      0.00    0.0000
  75                  -0.00    0.0000      0.00    0.0000
  114                 -0.00    0.0000      0.00    0.0000
   
  Analysis ended Tue Jun  1 20:55:26 2021
