  Page 1                                    Fri Dec  1 08:58:58 2023

  ******************************************************************
  *                           E P A N E T                          *
  *                   Hydraulic and Water Quality                  *
  *                   Analysis for Pipe Networks                   *
  *                         Version 2.2                            *
  ******************************************************************
  
  Analysis begun Fri Dec  1 08:58:58 2023

   
  Node Results:
  ----------------------------------------------
                     Demand      Head  Pressure
  Node                 m3/h         m         m
  ----------------------------------------------
  3661                 0.00    428.94     50.80
  482                  0.00    428.93     82.93
  661                  0.00    428.83     98.83
  6610                 0.00    427.73      1.61
  6611                 0.00    428.15     93.15
  6612                 0.00    428.26     65.89
  6613                 0.00    427.55     72.55
  6615                 0.00    428.91     89.91
  6616                 0.00    428.87     67.87
  6617                 0.00    428.13     85.13
  6618                 0.00    428.88     80.88
  662                  0.00    428.75    100.75
  6620                 0.00    428.86    120.86
  6621                 0.00    428.86    100.86
  6622                 0.00    428.86     91.86
  6623                 0.00    428.86     77.86
  6624                 0.00    428.86     76.86
  6625                 0.00    428.70    116.70
  6626                 0.00    428.79    107.79
  6627                 0.00    428.45    107.45
  6628                 0.00    428.58     89.58
  6629                 0.00    428.58     88.58
  663                  0.00    428.61     87.61
  6630                 0.00    428.25      3.39
  6632                 0.00    428.71     88.71
  6633                 0.00    428.91     66.27
  6634                 0.00    428.92     57.92
  6635                 0.00    428.93     76.93
  6636                 0.00    428.93     72.93
  6637                 0.00    428.93     61.93
  6639                 0.00    427.86     67.86
  664                  0.00    428.51     80.51
  6640                 0.00    427.83     67.83
  6641                 0.00    428.12     69.44
  6642                 0.00    428.12     72.12
  6643                 0.00    428.41     76.41
  6644                 0.00    428.46     76.46
  6645                 0.00    428.48     78.48
  6646                 0.00    428.48     81.46
  6648                 0.00    428.48     82.47
  6649                 0.00    428.47     89.47
  665                  0.00    428.47     83.47
  666                  0.00    428.64     88.64
  6665                 0.00    428.93     63.79
  6666                 0.00    428.93     61.27
  667                  0.00    428.46     76.46
  668                  0.00    428.83     98.83
  669                  0.00    428.58     83.58
  1                   69.00    428.83     98.83
  10                  74.00    427.93     75.93
  100                  0.00    428.12     73.12
  100B                 0.00    427.83     69.83
  101                113.00    427.17     74.17
  103                  0.00    427.96     88.96
  104                 41.00    427.95     88.95
  105                  0.00    427.55     72.55
  106                  0.00    427.55     72.55
  107                  0.00    428.91     89.91
  108                  0.00    428.91     93.35
  109                  0.00    428.91     91.91
  11B                  0.00    428.45     85.45
  110                  0.00    428.87     82.87
  111                  0.00    428.82     90.84
  112                  0.00    428.85     86.85
  113                  0.00    428.76    105.76
  114                 40.00    428.50     80.50
  115                 53.00    428.25     82.25
  116                  0.00    428.41     83.41
  117                  0.00    428.13     85.13
  118                 75.00    427.13     88.13
  119                  0.00    427.13    104.32
  12                   0.00    428.33     97.99
  121                  0.00    428.66     78.66
  122                  0.00    428.41     81.41
  123                  0.00    428.41     82.41
  125                  0.00    428.65     77.65
  126                  0.00    428.65     80.65
  127                  0.00    428.65     85.32
  128                  0.00    428.87     66.87
  129                  0.00    428.85     72.85
  130                  0.00    428.84     87.76
  130B                 0.00    428.85     75.85
  132                  0.00    428.83     95.83
  134                 62.00    428.14    107.14
  135                  0.00    428.45    112.45
  137                  0.00    428.45    119.45
  139                  0.00    428.83     68.83
  14                   0.00    428.15     90.15
  140                  0.00    428.83     77.83
  141                  0.00    428.83     76.83
  142                  0.00    428.83     67.83
  143                  0.00    428.83     87.86
  144                  0.00    428.86     69.86
  146                  0.00    428.82     82.82
  147                  0.00    428.79    107.79
  148                  0.00    428.82     95.82
  149                  0.00    428.70    115.49
  15                   0.00    428.15     93.15
  150                  0.00    428.59    120.52
  151                  0.00    428.37    123.13
  152                 64.00    426.68    116.66
  153                  0.00    427.25    117.25
  154                  0.00    428.86    103.86
  157                  0.00    428.86    125.86
  158A                 0.00    428.86    107.86
  158B                 0.00    428.86    107.86
  16B                127.00    428.18     94.18
  160                  0.00    428.93     61.93
  162                  0.00    428.93     60.93
  163                  0.00    428.93     54.93
  164                  0.00    428.93     69.27
  165                  0.00    428.93     67.63
  166                  0.00    428.93     67.92
  167                  0.00    428.93     58.29
  169                  0.00    428.93     62.43
  17A                  0.00    428.13     93.13
  170                103.00    428.93     69.93
  17B                 64.00    428.10     93.10
  171                  0.00    428.93     76.93
  172                  0.00    428.93     88.93
  18B                  0.00    428.10    103.10
  19                   0.00    428.91     70.91
  2                    0.00    428.77    102.77
  20                   0.00    428.94     64.94
  2002                 0.00    428.58     78.58
  2003                 0.00    428.58     78.58
  21                   0.00    428.93     66.20
  22                   0.00    428.93     67.33
  222                  0.00    428.92     78.92
  24                   0.00    428.91     84.91
  25                   0.00    428.90     83.90
  26                   0.00    428.88     80.88
  27                   0.00    428.89     78.89
  28                   0.00    428.89     80.89
  29                   0.00    428.87     72.87
  3                    0.00    428.69     88.34
  30                   0.00    428.87     67.87
  3002                 0.00    428.94     42.94
  3004                 0.00    428.94     42.94
  3005                 0.00    428.94     42.94
  3008                 0.00    428.94     43.94
  3012                 0.00    428.94     58.21
  3013                 0.00    428.94     64.01
  3016                 0.00    428.94     63.94
  3017                 0.00    428.95     46.95
  3018                 0.00    428.94     51.94
  3019                 0.00    428.94     59.55
  3020                 0.00    428.94     60.83
  3024                 0.00    428.94     64.00
  31                   0.00    428.86     71.07
  3152                 0.00    428.94     62.74
  32                   0.00    428.87     70.87
  34                   0.00    428.86     77.84
  35                   0.00    428.86     91.86
  36                   0.00    428.86    100.86
  39                   0.00    428.86    115.86
  41                   0.00    428.86    121.86
  46                   0.00    428.94     52.94
  47                   0.00    428.93     70.75
  48                   0.00    428.93     84.93
  49                   0.00    428.93     76.93
  5                    0.00    428.65     81.65
  52                   0.00    428.93     77.93
  53                   0.00    428.92     72.92
  54                   0.00    428.88     83.88
  55                   0.00    428.83     98.83
  56                   0.00    428.83     94.83
  58                   0.00    428.83     95.83
  59                   0.00    428.83     99.83
  6                    0.00    428.46     76.46
  60                   0.00    428.69     83.69
  61                   0.00    428.69     89.69
  62                   0.00    428.46     74.46
  64                   0.00    428.73     97.73
  65                   0.00    428.71     88.71
  66                   0.00    428.71     89.71
  67                   0.00    428.66     96.66
  68                   0.00    428.25     89.25
  69                  58.00    427.48     76.48
  7                   68.00    428.54     75.54
  70                   0.00    428.58     88.58
  71                  82.00    426.94     89.94
  72                   0.00    428.46     72.46
  73                   0.00    428.40     73.40
  77                   0.00    428.46     72.46
  78                   0.00    428.46     88.32
  79                  48.00    428.54     75.54
  8                   43.00    428.37     78.37
  80                 102.00    428.48     79.48
  81                   0.00    428.48     69.48
  82                   0.00    428.48     70.48
  85                   0.00    428.58     89.58
  86                   0.00    428.58     91.58
  87                  57.00    428.29     68.29
  88                   0.00    428.26     75.26
  89                   0.00    428.18     61.18
  90                   0.00    428.12     72.12
  91                 198.00    427.35     55.35
  92                  61.00    427.68     67.68
  91B                  0.00    427.73     67.73
  94                   0.00    428.47     89.47
  95                   0.00    428.47     85.47
  97                   0.00    428.47     97.47
  99                   0.00    428.18     78.18
  74                   0.00    428.39     69.68
  1074                 0.00    428.39     70.39
  11A                  0.00    428.47     85.47
  1011                 0.00    428.47     85.47
  0                -1602.00    429.00      0.00  Reservoir
   
   
  Link Results:
  ----------------------------------------------
                       Flow  Velocity  Headloss
  Link                 m3/h       m/s    /1000m
  ----------------------------------------------
  TU1                 61.00      0.67      2.21
  TU10                 0.00      0.00      0.00
  TU100              140.00      0.31      0.21
  TU101              140.00      0.20      0.07
  TU102                0.00      0.00      0.00
  TU103              140.00      0.20      0.07
  TU104              140.00      0.20      0.07
  TU105              996.00      0.43      0.15
  TU106              996.00      0.43      0.15
  TU107                0.00      0.00      0.00
  TU108              996.00      0.43      0.15
  TU109             1136.00      0.50      0.19
  TU11               113.00      0.52      0.83
  TU110             1136.00      0.50      0.19
  TU111                0.00      0.00      0.00
  TU112               -0.00      0.00      0.00
  TU113                0.00      0.00      0.00
  TU114                0.00      0.00      0.00
  TU115             1205.00      0.43      0.13
  TU116             1205.00      0.43      0.13
  TU117               -0.00      0.00      0.00
  TU118                0.00      0.00      0.00
  TU119             1205.00      0.43      0.13
  TU12                41.00      0.47      1.20
  TU120             1205.00      0.43      0.13
  TU121               -0.00      0.00      0.00
  TU122                0.00      0.00      0.00
  TU123               -0.00      0.00      0.00
  TU124                0.00      0.00      0.00
  TU125               -0.00      0.00      0.00
  TU126               -0.00      0.00      0.00
  TU127               -0.00      0.00      0.00
  TU128                0.00      0.00      0.00
  TU129                0.00      0.00      0.00
  TU13                41.00      0.30      0.41
  TU130                0.00      0.00      0.00
  TU131               -0.00      0.00      0.00
  TU132                0.00      0.00      0.00
  TU133               -0.00      0.00      0.00
  TU134               -0.00      0.00      0.00
  TU135               -0.00      0.00      0.00
  TU136                0.00      0.00      0.00
  TU137                0.00      0.00      0.00
  TU138              103.00      0.15      0.04
  TU139              103.00      0.10      0.02
  TU14               154.00      0.34      0.25
  TU140              103.00      0.10      0.02
  TU141                0.00      0.00      0.00
  TU142                0.00      0.00      0.00
  TU143              198.00      0.86      2.04
  TU144               -0.00      0.00      0.00
  TU145               61.00      0.42      0.74
  TU146               61.00      0.27      0.24
  TU147              259.00      0.70      1.04
  TU148               -0.00      0.00      0.00
  TU149               -0.00      0.00      0.00
  TU15                -0.00      0.00      0.00
  TU150               -0.00      0.00      0.00
  TU151              259.00      0.37      0.22
  TU152               -0.00      0.00      0.00
  TU15301            316.00      0.45      0.32
  TU15302            316.00      0.45      0.31
  TU1074               0.00      0.00      0.00
  TU154              316.00      0.31      0.13
  TU155               74.00      1.24      8.97
  TU156              390.00      0.38      0.19
  TU157              390.00      0.38      0.19
  TU158                0.00      0.00      0.00
  TU159              390.00      0.38      0.19
  TU16              1602.00      0.29      0.04
  TU160               43.00      0.76      3.83
  TU161              433.00      0.43      0.23
  TU162              563.00      0.41      0.18
  TU163              447.00      0.32      0.12
  TU164              495.00      0.36      0.14
  TU166               -0.00      0.00      0.00
  TU167               -0.00      0.00      0.00
  TU168                0.00      0.00      0.00
  TU169                0.00      0.00      0.00
  TU17                 0.00      0.00      0.00
  TU170              102.00      0.47      0.69
  TU171              345.00      0.25      0.07
  TU17201             -0.00      0.00      0.00
  TU17202              0.00      0.00      0.00
  TU1011A             -0.00      0.00      0.00
  TU173               -0.00      0.00      0.00
  TU174               -0.00      0.00      0.00
  TU175               -0.00      0.00      0.00
  TU176              345.00      0.34      0.15
  TU177              345.00      0.34      0.15
  TU178              345.00      0.34      0.15
  TU179               64.00      0.18      0.09
  TU18                 0.00      0.00      0.00
  TU180               64.00      0.18      0.09
  TU181                0.00      0.00      0.00
  TU182               64.00      0.29      0.30
  TU183                0.00      0.00      0.00
  TU184                0.00      0.00      0.00
  TU185              168.00      0.37      0.29
  TU186               -0.00      0.00      0.00
  TU187               -0.00      0.00      0.00
  TU188              294.00      0.21      0.05
  TU189              294.00      0.21      0.05
  TU19                -0.00      0.00      0.00
  TU190               64.00      0.84      3.79
  TU191                0.00      0.00      0.00
  TU192                0.00      0.00      0.00
  TU193                0.00      0.00      0.00
  TU194               -0.00      0.00      0.00
  TU195                0.00      0.00      0.00
  TU196                0.00      0.00      0.00
  TU197               -0.00      0.00      0.00
  TU198                0.00      0.00      0.00
  TU199                0.00      0.00      0.00
  TU2                  0.00      0.00      0.00
  TU20                 0.00      0.00      0.00
  TU200               -0.00      0.00      0.00
  TU201                0.00      0.00      0.00
  TU203                0.00      0.00      0.00
  TU204              294.00      0.13      0.02
  TU205              294.00      0.13      0.02
  TU21                64.00      0.54      1.29
  TU22               294.00      0.16      0.03
  TU23               294.00      0.16      0.03
  TU24               294.00      0.16      0.03
  TU25               294.00      0.16      0.03
  TU26               126.00      0.12      0.03
  TU27               126.00      0.12      0.02
  TU28               126.00      0.12      0.03
  TU29               126.00      0.12      0.02
  TU3                  0.00      0.00      0.00
  TU30                 0.00      0.00      0.00
  TU31                75.00      0.86      3.59
  TU32                 0.00      0.00      0.00
  TU33                75.00      0.34      0.40
  TU34               128.00      0.59      1.04
  TU35                 0.00      0.00      0.00
  TU36                 0.00      0.00      0.00
  TU37               128.00      0.36      0.33
  TU38               168.00      0.48      0.54
  TU39                -0.00      0.00      0.00
  TU4                259.00      0.37      0.22
  TU40                -0.00      0.00      0.00
  TU41               168.00      0.37      0.29
  TU42                 0.00      0.00      0.00
  TU43               168.00      0.24      0.10
  TU44               168.00      0.24      0.10
  TU45               168.00      0.24      0.10
  TU46               168.00      0.24      0.10
  TU47                -0.00      0.00      0.00
  TU48                 0.00      0.00      0.00
  TU49                 0.00      0.00      0.00
  TU5                259.00      0.37      0.22
  TU50                 0.00      0.00      0.00
  TU51                 0.00      0.00      0.00
  TU52                 0.00      0.00      0.00
  TU53                 0.00      0.00      0.00
  TU54                 0.00      0.00      0.00
  TU55                 0.00      0.00      0.00
  TU56                 0.00      0.00      0.00
  TU57                 0.00      0.00      0.00
  TU58                 0.00      0.00      0.00
  TU59                 0.00      0.00      0.00
  TU6                168.00      0.24      0.10
  TU60                64.00      1.32     11.27
  TU61                 0.00      0.00      0.00
  TU62                64.00      0.34      0.43
  TU63                 0.00      0.00      0.00
  TU64                64.00      0.34      0.43
  TU65                 0.00      0.00      0.00
  TU66                64.00      0.21      0.14
  TU67                64.00      0.18      0.10
  TU68                64.00      0.18      0.09
  TU69                64.00      0.09      0.02
  TU7                  0.00      0.00      0.00
  TU70                64.00      0.09      0.02
  TU71                64.00      0.09      0.02
  TU72                62.00      0.14      0.05
  TU73                62.00      0.14      0.05
  TU74                62.00      0.14      0.05
  TU75                62.00      0.14      0.05
  TU76                62.00      0.14      0.05
  TU77                62.00      0.14      0.05
  TU78                 0.00      0.00      0.00
  TU79                 0.00      0.00      0.00
  TU8                113.00      1.22      6.62
  TU80                62.00      1.28     10.64
  TU81                62.00      0.52      1.22
  TU82                 0.00      0.00      0.00
  TU83                 0.00      0.00      0.00
  TU84                 0.00      0.00      0.00
  TU85                 0.00      0.00      0.00
  TU86                 0.00      0.00      0.00
  TU87                 0.00      0.00      0.00
  TU88                 0.00      0.00      0.00
  TU89                 0.00      0.00      0.00
  TU9                  0.00      0.00      0.00
  TU90                 0.00      0.00      0.00
  TU91                -0.00      0.00      0.00
  TU92                -0.00      0.00      0.00
  TU93                 0.00      0.00      0.00
  TU94                82.00      0.94      4.23
  TU95                82.00      0.23      0.15
  TU96                 0.00      0.00      0.00
  TU97                58.00      1.03      6.59
  TU98                58.00      0.66      2.25
  TU99               140.00      0.31      0.21
  TU4000               0.00      0.00      0.00
   
  Analysis ended Fri Dec  1 08:58:58 2023
