  Page 1                                    Fri Dec  1 08:52:42 2023

  ******************************************************************
  *                           E P A N E T                          *
  *                   Hydraulic and Water Quality                  *
  *                   Analysis for Pipe Networks                   *
  *                         Version 2.2                            *
  ******************************************************************
  
  Analysis begun Fri Dec  1 08:52:42 2023

   
  Node Results:
  ----------------------------------------------
                     Demand      Head  Pressure
  Node                 m3/h         m         m
  ----------------------------------------------
  3661                 0.00    428.73     50.59
  482                  0.00    427.67     81.67
  661                  0.00    428.49     98.49
  6610                 0.00    425.82      1.03
  6611                 0.00    428.19     93.19
  6612                 0.00    426.47     64.10
  6613                 0.00    428.19     73.19
  6615                 0.00    428.64     89.64
  6616                 0.00    428.53     67.53
  6617                 0.00    426.92     83.92
  6618                 0.00    428.54     80.54
  662                  0.00    428.48    100.48
  6620                 0.00    427.21    119.21
  6621                 0.00    428.05    100.05
  6622                 0.00    428.24     91.24
  6623                 0.00    428.43     77.43
  6624                 0.00    428.47     76.47
  6625                 0.00    428.47    116.47
  6626                 0.00    428.47    107.47
  6627                 0.00    428.13    107.13
  6628                 0.00    428.48     89.48
  6629                 0.00    428.48     88.48
  663                  0.00    428.21     87.21
  6630                 0.00    428.48      3.62
  6632                 0.00    428.48     88.48
  6633                 0.00    428.74     66.10
  6634                 0.00    428.77     57.77
  6635                 0.00    428.67     76.67
  6636                 0.00    428.67     72.67
  6637                 0.00    428.55     61.55
  6639                 0.00    425.94     65.94
  664                  0.00    428.19     80.19
  6640                 0.00    425.92     65.92
  6641                 0.00    426.19     67.51
  6642                 0.00    426.19     70.19
  6643                 0.00    427.05     75.05
  6644                 0.00    427.32     75.32
  6645                 0.00    427.44     77.44
  6646                 0.00    428.19     81.17
  6648                 0.00    428.19     82.18
  6649                 0.00    428.19     89.19
  665                  0.00    428.19     83.19
  666                  0.00    428.48     88.48
  6665                 0.00    428.38     63.24
  6666                 0.00    428.47     60.81
  667                  0.00    427.29     75.29
  668                  0.00    428.49     98.49
  669                  0.00    428.48     83.48
  1                    0.00    428.59     98.59
  10                   0.00    427.05     75.05
  100                  0.00    426.19     71.19
  100B                 0.00    425.92     67.92
  101                  0.00    428.19     75.19
  103                  0.00    428.19     89.19
  104                  0.00    428.19     89.19
  105                  0.00    428.19     73.19
  106                  0.00    428.19     73.19
  107                  0.00    428.64     89.64
  108                  0.00    428.64     93.08
  109                  0.00    428.64     91.64
  11B                 94.00    428.19     85.19
  110                  0.00    428.50     82.50
  111                  0.00    428.36     90.38
  112                  0.00    428.43     86.43
  113                  0.00    428.15    105.15
  114                 57.00    427.47     79.47
  115                 58.00    427.06     81.06
  116                  0.00    427.25     82.25
  117                  0.00    426.92     83.92
  118                 82.00    425.74     86.74
  119                  0.00    425.74    102.93
  12                   0.00    428.19     97.85
  121                  0.00    427.84     77.84
  122                 69.00    423.15     76.15
  123                  0.00    426.67     80.67
  125                  0.00    427.81     76.81
  126                  0.00    427.74     79.74
  127                 52.00    427.46     84.13
  128                  0.00    428.53     66.53
  129                  0.00    428.51     72.51
  130                  0.00    428.50     87.42
  130B                 0.00    428.51     75.51
  132                  0.00    428.49     95.49
  134                 60.00    427.84    106.84
  135                  0.00    428.13    112.13
  137                  0.00    428.13    119.13
  139                  0.00    428.49     68.49
  14                   0.00    428.19     90.19
  140                  0.00    428.49     77.49
  141                  0.00    428.49     76.49
  142                  0.00    428.49     67.49
  143                  0.00    428.49     87.52
  144                  0.00    428.52     69.52
  146                  0.00    428.47     82.47
  147                  0.00    428.47    107.47
  148                  0.00    428.47     95.47
  149                  0.00    428.47    115.26
  15                   0.00    428.19     93.19
  150                  0.00    428.47    120.40
  151                  0.00    428.47    123.23
  152                  0.00    428.47    118.45
  153                  0.00    428.47    118.47
  154                  0.00    427.96    102.96
  157                  0.00    427.21    124.21
  158A                75.00    415.26     94.26
  158B                75.00    415.24     94.24
  16B                  0.00    428.19     94.19
  160                 68.00    428.53     61.53
  162                  0.00    428.50     60.50
  163                  0.00    428.47     54.47
  164                 55.00    428.39     68.73
  165                  0.00    428.38     67.08
  166                  0.00    428.38     67.37
  167                  0.00    428.38     57.74
  169                 73.00    428.24     61.74
  17A                  0.00    428.19     93.19
  170                  0.00    428.61     69.61
  17B                  0.00    428.19     93.19
  171                  0.00    428.67     76.67
  172                  0.00    428.67     88.67
  18B                  0.00    428.19    103.19
  19                   0.00    428.74     70.74
  2                    0.00    428.50    102.50
  20                  87.00    428.73     64.73
  2002                 0.00    428.48     78.48
  2003                 0.00    428.48     78.48
  21                   0.00    428.71     65.98
  22                  74.00    428.70     67.10
  222                 72.00    428.66     78.66
  24                   0.00    428.64     84.64
  25                   0.00    428.61     83.61
  26                   0.00    428.54     80.54
  27                   0.00    428.58     78.58
  28                   0.00    428.57     80.57
  29                   0.00    428.53     72.53
  3                    0.00    428.37     88.02
  30                   0.00    428.53     67.53
  3002                 0.00    428.73     42.73
  3004                 0.00    428.73     42.73
  3005                 0.00    428.73     42.73
  3008                 0.00    428.73     43.73
  3012                 0.00    428.73     58.00
  3013                 0.00    428.73     63.80
  3016               133.00    428.75     63.75
  3017                 0.00    428.84     46.84
  3018                 0.00    428.73     51.73
  3019                 0.00    428.73     59.34
  3020                 0.00    428.73     60.62
  3024                 0.00    428.73     63.79
  31                   0.00    428.49     70.70
  3152                 0.00    428.73     62.53
  32                   0.00    428.51     70.51
  34                   0.00    428.43     77.41
  35                   0.00    428.24     91.24
  36                   0.00    428.05    100.05
  39                   0.00    427.68    114.68
  41                   0.00    426.94    119.94
  46                   0.00    428.73     52.73
  47                   0.00    428.38     70.20
  48                   0.00    427.30     83.30
  49                  88.00    424.51     72.51
  5                    0.00    428.28     81.28
  52                  70.00    424.48     73.48
  53                 143.00    425.65     69.65
  54                   0.00    428.69     83.69
  55                   0.00    427.15     97.15
  56                  55.00    426.44     92.44
  58                 125.00    421.97     88.97
  59                 164.00    418.23     89.23
  6                    0.00    427.32     75.32
  60                   0.00    428.37     83.37
  61                   0.00    428.37     89.37
  62                   0.00    426.98     72.98
  64                   0.00    428.48     97.48
  65                   0.00    428.48     88.48
  66                   0.00    428.48     89.48
  67                   0.00    428.48     96.48
  68                   0.00    428.48     89.48
  69                   0.00    428.48     77.48
  7                   72.00    428.20     75.20
  70                   0.00    428.48     88.48
  71                   0.00    428.48     91.48
  72                 100.00    426.98     70.98
  73                 171.00    426.99     71.99
  77                 123.00    423.21     67.21
  78                   0.00    426.98     86.84
  79                  50.00    428.20     75.20
  8                   66.00    427.19     77.19
  80                   0.00    428.19     79.19
  81                   0.00    428.19     69.19
  82                   0.00    428.19     70.19
  85                   0.00    428.48     89.48
  86                   0.00    428.48     91.48
  87                  99.00    426.60     66.60
  88                  61.00    421.54     68.54
  89                  86.00    426.25     59.25
  90                   0.00    426.19     70.19
  91                 190.00    425.48     53.48
  92                  60.00    425.77     65.77
  91B                  0.00    425.82     65.82
  94                   0.00    428.19     89.19
  95                   0.00    428.19     85.19
  97                   0.00    428.19     97.19
  99                 141.00    423.75     73.75
  74                  77.00    424.75     66.04
  1074                 0.00    426.95     68.95
  11A                  0.00    428.19     85.19
  1011                 0.00    428.19     85.19
  0                -3125.00    429.00      0.00  Reservoir
   
   
  Link Results:
  ----------------------------------------------
                       Flow  Velocity  Headloss
  Link                 m3/h       m/s    /1000m
  ----------------------------------------------
  TU1                 60.00      0.65      2.15
  TU10                 0.00      0.00      0.00
  TU100                0.00      0.00      0.00
  TU101                0.00      0.00      0.00
  TU102                0.00      0.00      0.00
  TU103                0.00      0.00      0.00
  TU104                0.00      0.00      0.00
  TU105             1390.00      0.61      0.27
  TU106             1390.00      0.61      0.27
  TU107                0.00      0.00      0.00
  TU108             1390.00      0.61      0.27
  TU109             1390.00      0.61      0.27
  TU11                -0.00      0.00      0.00
  TU110             1390.00      0.61      0.27
  TU111              164.00      2.16     21.28
  TU112              289.00      2.11     14.42
  TU113              344.00      1.83      9.13
  TU114              344.00      1.83      9.13
  TU115             1734.00      0.61      0.25
  TU116             1734.00      0.61      0.25
  TU117              143.00      1.54     10.20
  TU118                0.00      0.00      0.00
  TU119             1734.00      0.61      0.25
  TU12                 0.00      0.00      0.00
  TU120             1877.00      0.66      0.28
  TU121                0.00      0.00      0.00
  TU122                0.00      0.00      0.00
  TU123               -0.00      0.00      0.00
  TU124               70.00      0.80      3.17
  TU125              158.00      1.15      4.74
  TU126              158.00      0.72      1.52
  TU127              158.00      0.72      1.52
  TU128                0.00      0.00      0.00
  TU129                0.00      0.00      0.00
  TU13                 0.00      0.00      0.00
  TU130               -0.00      0.00      0.00
  TU131               -0.00      0.00      0.00
  TU132               73.00      0.32      0.33
  TU133               73.00      0.32      0.33
  TU134               -0.00      0.00      0.00
  TU135              128.00      0.28      0.18
  TU136              196.00      0.43      0.39
  TU137              354.00      0.50      0.39
  TU138              354.00      0.50      0.39
  TU139              354.00      0.35      0.16
  TU14                -0.00      0.00      0.00
  TU140              354.00      0.35      0.16
  TU141                0.00      0.00      0.00
  TU142              223.00      0.60      0.80
  TU143              190.00      0.83      1.89
  TU144               -0.00      0.00      0.00
  TU145               60.00      0.42      0.72
  TU146               60.00      0.26      0.24
  TU147              250.00      0.67      0.98
  TU148               -0.00      0.00      0.00
  TU149               -0.00      0.00      0.00
  TU15                -0.00      0.00      0.00
  TU150               -0.00      0.00      0.00
  TU151              250.00      0.35      0.21
  TU152              141.00      1.61     11.40
  TU15301            714.00      1.01      1.40
  TU15302            637.00      0.90      1.13
  TU1074              77.00      1.01      5.31
  TU154              885.00      0.87      0.85
  TU155                0.00      0.00      0.00
  TU156              885.00      0.87      0.85
  TU157             1108.00      1.09      1.29
  TU158                0.00      0.00      0.00
  TU159             1108.00      1.09      1.29
  TU16              3125.00      0.56      0.14
  TU160               66.00      1.17      8.34
  TU161             1174.00      1.15      1.44
  TU162              216.00      0.16      0.03
  TU163               94.00      0.07      0.01
  TU164              144.00      0.10      0.01
  TU166               -0.00      0.00      0.00
  TU167               -0.00      0.00      0.00
  TU168                0.00      0.00      0.00
  TU169                0.00      0.00      0.00
  TU17                -0.00      0.00      0.00
  TU170                0.00      0.00      0.00
  TU171               94.00      0.07      0.01
  TU17201             -0.00      0.00      0.00
  TU17202              0.00      0.00      0.00
  TU1011A             -0.00      0.00      0.00
  TU173               -0.00      0.00      0.00
  TU174               -0.00      0.00      0.00
  TU175               -0.00      0.00      0.00
  TU176               -0.00      0.00      0.00
  TU177               94.00      0.09      0.01
  TU178               -0.00      0.00      0.00
  TU179                0.00      0.00      0.00
  TU18                 0.00      0.00      0.00
  TU180                0.00      0.00      0.00
  TU181                0.00      0.00      0.00
  TU182                0.00      0.00      0.00
  TU183                0.00      0.00      0.00
  TU184                0.00      0.00      0.00
  TU185              318.00      0.70      0.94
  TU186              128.00      0.35      0.29
  TU187              128.00      0.28      0.18
  TU188              528.00      0.38      0.16
  TU189              528.00      0.38      0.16
  TU19                 0.00      0.00      0.00
  TU190               -0.00      0.00      0.00
  TU191                0.00      0.00      0.00
  TU192                0.00      0.00      0.00
  TU193                0.00      0.00      0.00
  TU194               -0.00      0.00      0.00
  TU195                0.00      0.00      0.00
  TU196                0.00      0.00      0.00
  TU197                0.00      0.00      0.00
  TU198                0.00      0.00      0.00
  TU199                0.00      0.00      0.00
  TU2                  0.00      0.00      0.00
  TU20                 0.00      0.00      0.00
  TU200               -0.00      0.00      0.00
  TU201                0.00      0.00      0.00
  TU203                0.00      0.00      0.00
  TU204              761.00      0.33      0.09
  TU205              894.00      0.39      0.12
  TU21                -0.00      0.00      0.00
  TU22               528.00      0.29      0.08
  TU23               600.00      0.33      0.10
  TU24               674.00      0.37      0.13
  TU25               674.00      0.37      0.13
  TU26               210.00      0.21      0.06
  TU27               210.00      0.21      0.06
  TU28               210.00      0.21      0.06
  TU29               210.00      0.21      0.06
  TU3                 61.00      1.03      6.31
  TU30                 0.00      0.00      0.00
  TU31                82.00      0.94      4.23
  TU32                 0.00      0.00      0.00
  TU33                82.00      0.38      0.46
  TU34               140.00      0.64      1.22
  TU35                69.00      1.23      9.05
  TU36                69.00      0.79      3.09
  TU37               209.00      0.59      0.80
  TU38               266.00      0.75      1.24
  TU39                52.00      0.59      1.85
  TU4                477.00      0.67      0.67
  TU40                52.00      0.38      0.63
  TU41               318.00      0.70      0.94
  TU42                 0.00      0.00      0.00
  TU43               318.00      0.45      0.32
  TU44               318.00      0.45      0.32
  TU45               318.00      0.45      0.32
  TU46               318.00      0.45      0.32
  TU47                -0.00      0.00      0.00
  TU48               150.00      1.97     18.04
  TU49               150.00      1.26      6.07
  TU5                538.00      0.76      0.83
  TU50                 0.00      0.00      0.00
  TU51               150.00      0.80      1.99
  TU52               150.00      0.50      0.63
  TU53               150.00      0.50      0.63
  TU54                 0.00      0.00      0.00
  TU55               150.00      0.50      0.63
  TU56                 0.00      0.00      0.00
  TU57               150.00      0.43      0.44
  TU58                 0.00      0.00      0.00
  TU59               150.00      0.43      0.44
  TU6                318.00      0.45      0.32
  TU60                 0.00      0.00      0.00
  TU61                 0.00      0.00      0.00
  TU62                -0.00      0.00      0.00
  TU63                 0.00      0.00      0.00
  TU64                 0.00      0.00      0.00
  TU65                 0.00      0.00      0.00
  TU66                 0.00      0.00      0.00
  TU67                 0.00      0.00      0.00
  TU68                 0.00      0.00      0.00
  TU69               150.00      0.21      0.08
  TU7                123.00      2.07     22.84
  TU70               150.00      0.21      0.08
  TU71               150.00      0.21      0.08
  TU72                60.00      0.13      0.05
  TU73                60.00      0.13      0.05
  TU74                60.00      0.13      0.05
  TU75                60.00      0.13      0.05
  TU76                60.00      0.13      0.05
  TU77                60.00      0.13      0.05
  TU78                 0.00      0.00      0.00
  TU79                 0.00      0.00      0.00
  TU8                  0.00      0.00      0.00
  TU80                60.00      1.24     10.02
  TU81                60.00      0.50      1.15
  TU82                 0.00      0.00      0.00
  TU83                 0.00      0.00      0.00
  TU84                 0.00      0.00      0.00
  TU85                 0.00      0.00      0.00
  TU86                 0.00      0.00      0.00
  TU87                 0.00      0.00      0.00
  TU88                 0.00      0.00      0.00
  TU89                 0.00      0.00      0.00
  TU9                  0.00      0.00      0.00
  TU90                 0.00      0.00      0.00
  TU91                -0.00      0.00      0.00
  TU92                 0.00      0.00      0.00
  TU93                 0.00      0.00      0.00
  TU94                 0.00      0.00      0.00
  TU95                 0.00      0.00      0.00
  TU96                 0.00      0.00      0.00
  TU97                 0.00      0.00      0.00
  TU98                 0.00      0.00      0.00
  TU99                 0.00      0.00      0.00
  TU4000              75.00      0.99      5.06
   
  Analysis ended Fri Dec  1 08:52:42 2023
