  Page 1                                    Fri Dec  1 09:00:48 2023

  ******************************************************************
  *                           E P A N E T                          *
  *                   Hydraulic and Water Quality                  *
  *                   Analysis for Pipe Networks                   *
  *                         Version 2.2                            *
  ******************************************************************
  
  Analysis begun Fri Dec  1 09:00:48 2023

   
  Node Results:
  ----------------------------------------------
                     Demand      Head  Pressure
  Node                 m3/h         m         m
  ----------------------------------------------
  3661                 0.00    428.86     50.72
  482                  0.00    428.84     82.84
  661                  0.00    428.66     98.66
  6610                 0.00    427.17      1.88
  6611                 0.00    427.62     92.62
  6612                 0.00    427.67     65.30
  6613                 0.00    426.82     71.82
  6615                 0.00    428.60     89.60
  6616                 0.00    428.66     67.66
  6617                 0.00    427.64     84.64
  6618                 0.00    428.62     80.62
  662                  0.00    428.69    100.69
  6620                 0.00    428.61    120.61
  6621                 0.00    428.61    100.61
  6622                 0.00    428.61     91.61
  6623                 0.00    428.61     77.61
  6624                 0.00    428.61     76.61
  6625                 0.00    427.83    115.83
  6626                 0.00    428.27    107.27
  6627                 0.00    428.66    107.66
  6628                 0.00    428.66     89.66
  6629                 0.00    428.66     88.66
  663                  0.00    428.47     87.47
  6630                 0.00    428.28      3.42
  6632                 0.00    428.68     88.68
  6633                 0.00    428.87     66.23
  6634                 0.00    428.89     57.89
  6635                 0.00    428.88     76.88
  6636                 0.00    428.88     72.88
  6637                 0.00    428.84     61.84
  6639                 0.00    427.31     67.31
  664                  0.00    428.35     80.35
  6640                 0.00    427.17     67.17
  6641                 0.00    427.42     68.74
  6642                 0.00    427.37     71.37
  6643                 0.00    428.04     76.04
  6644                 0.00    428.17     76.17
  6645                 0.00    428.21     78.21
  6646                 0.00    428.35     81.33
  6648                 0.00    428.35     82.34
  6649                 0.00    428.19     89.19
  665                  0.00    428.27     83.27
  666                  0.00    428.66     88.66
  6665                 0.00    428.68     63.54
  6666                 0.00    428.77     61.11
  667                  0.00    428.16     76.16
  668                  0.00    428.66     98.66
  669                  0.00    428.66     83.66
  1                    0.00    428.78     98.78
  10                  68.00    427.64     75.64
  100                108.00    427.34     72.34
  100B               162.00    425.50     67.50
  101                 97.00    426.53     73.53
  103                  0.00    427.88     88.88
  104                  0.00    427.88     88.88
  105                  0.00    426.82     71.82
  106                 57.00    426.73     71.73
  107                  0.00    428.60     89.60
  108                 58.00    427.77     92.21
  109                  0.00    428.41     91.41
  11B                134.00    428.22     85.22
  110                 71.00    428.57     82.57
  111                 56.00    428.40     90.42
  112                  0.00    428.48     86.48
  113                  0.00    428.22    105.22
  114                 60.00    427.83     79.83
  115                  0.00    427.75     81.75
  116                  0.00    427.80     82.80
  117                 70.00    427.56     84.56
  118                  0.00    427.64     88.64
  119                  0.00    427.64    104.83
  12                   0.00    428.08     97.74
  121                  0.00    427.95     77.95
  122                  0.00    427.80     80.80
  123                  0.00    427.80     81.80
  125                  0.00    427.92     76.92
  126                  0.00    427.37     79.37
  127                162.00    425.15     81.82
  128                  0.00    428.66     66.66
  129                  0.00    428.66     72.66
  130                  0.00    428.66     87.58
  130B                 0.00    428.66     75.66
  132                  0.00    428.66     95.66
  134                  0.00    428.66    107.66
  135                  0.00    428.66    112.66
  137                  0.00    428.66    119.66
  139                  0.00    428.66     68.66
  14                   0.00    427.88     89.88
  140                  0.00    428.66     77.66
  141                  0.00    428.66     76.66
  142                  0.00    428.66     67.66
  143                  0.00    428.66     87.69
  144                  0.00    428.66     69.66
  146                  0.00    428.44     82.44
  147                  0.00    428.27    107.27
  148                  0.00    428.41     95.41
  149                  0.00    427.83    114.62
  15                 221.00    426.97     91.97
  150                 99.00    427.33    119.26
  151                  0.00    427.16    121.92
  152                 54.00    425.92    115.90
  153                  0.00    426.34    116.34
  154                  0.00    428.61    103.61
  157                  0.00    428.61    125.61
  158A                 0.00    428.61    107.61
  158B                 0.00    428.61    107.61
  16B                  0.00    427.90     93.90
  160                 50.00    428.83     61.83
  162                  0.00    428.80     60.80
  163                  0.00    428.77     54.77
  164                 60.00    428.69     69.03
  165                  0.00    428.68     67.38
  166                  0.00    428.68     67.67
  167                  0.00    428.68     58.04
  169                 66.00    428.56     62.06
  17A                  0.00    427.62     92.62
  170                  0.00    428.86     69.86
  17B                  0.00    427.62     92.62
  171                  0.00    428.88     76.88
  172                  0.00    428.88     88.88
  18B                  0.00    427.62    102.62
  19                   0.00    428.87     70.87
  2                    0.00    428.71    102.71
  20                   0.00    428.86     64.86
  2002                 0.00    428.66     78.66
  2003                 0.00    428.66     78.66
  21                   0.00    428.84     66.11
  22                   0.00    428.84     67.24
  222                  0.00    428.79     78.79
  24                   0.00    428.77     84.77
  25                   0.00    428.73     83.73
  26                   0.00    428.62     80.62
  27                   0.00    428.69     78.69
  28                   0.00    428.69     80.69
  29                   0.00    428.67     72.67
  3                    0.00    428.60     88.25
  30                   0.00    428.67     67.67
  3002                 0.00    428.86     42.86
  3004                 0.00    428.86     42.86
  3005                 0.00    428.86     42.86
  3008                 0.00    428.86     43.86
  3012                 0.00    428.86     58.13
  3013                 0.00    428.86     63.93
  3016                 0.00    428.88     63.88
  3017                 0.00    428.92     46.92
  3018                 0.00    428.89     51.89
  3019                 0.00    428.86     59.47
  3020                 0.00    428.86     60.75
  3024                 0.00    428.86     63.92
  31                   0.00    428.63     70.84
  3152                 0.00    428.86     62.66
  32                   0.00    428.64     70.64
  34                   0.00    428.61     77.59
  35                   0.00    428.61     91.61
  36                   0.00    428.61    100.61
  39                   0.00    428.61    115.61
  41                   0.00    428.61    121.61
  46                   0.00    428.89     52.89
  47                   0.00    428.68     70.50
  48                   0.00    428.84     84.84
  49                   0.00    428.84     76.84
  5                    0.00    428.53     81.53
  52                   0.00    428.84     77.84
  53                   0.00    428.89     72.89
  54                   0.00    428.84     83.84
  55                   0.00    428.78     98.78
  56                   0.00    428.78     94.78
  58                   0.00    428.78     95.78
  59                   0.00    428.78     99.78
  6                    0.00    428.17     76.17
  60                   0.00    428.60     83.60
  61                   0.00    428.60     89.60
  62                   0.00    428.16     74.16
  64                   0.00    428.68     97.68
  65                   0.00    428.68     88.68
  66                   0.00    428.68     89.68
  67                   0.00    428.67     96.67
  68                   0.00    428.28     89.28
  69                  58.00    427.51     76.51
  7                    0.00    428.41     75.41
  70                   0.00    428.66     88.66
  71                   0.00    428.66     91.66
  72                   0.00    428.16     72.16
  73                   0.00    428.02     73.02
  77                   0.00    428.16     72.16
  78                   0.00    428.16     88.02
  79                   0.00    428.41     75.41
  8                   58.00    428.02     78.02
  80                   0.00    428.35     79.35
  81                   0.00    428.35     69.35
  82                   0.00    428.35     70.35
  85                   0.00    428.66     89.66
  86                   0.00    428.66     91.66
  87                 115.00    427.74     67.74
  88                   0.00    427.67     74.67
  89                   0.00    427.49     60.49
  90                   0.00    427.37     71.37
  91                   0.00    427.31     55.31
  92                   0.00    427.17     67.17
  91B                  0.00    427.17     67.17
  94                   0.00    428.19     89.19
  95                   0.00    428.02     85.02
  97                   0.00    427.91     96.91
  99                 145.00    424.87     74.87
  74                   0.00    428.00     69.29
  1074                 0.00    428.00     70.00
  11A                 63.00    427.86     84.86
  1011                 0.00    427.91     84.91
  0                -2092.00    429.00      0.00  Reservoir
   
   
  Link Results:
  ----------------------------------------------
                       Flow  Velocity  Headloss
  Link                 m3/h       m/s    /1000m
  ----------------------------------------------
  TU1                 -0.00      0.00      0.00
  TU10                 0.00      0.00      0.00
  TU100               58.00      0.13      0.04
  TU101               58.00      0.08      0.02
  TU102                0.00      0.00      0.00
  TU103               58.00      0.08      0.01
  TU104               58.00      0.08      0.02
  TU105             1228.00      0.54      0.22
  TU106             1228.00      0.54      0.22
  TU107                0.00      0.00      0.00
  TU108             1228.00      0.54      0.22
  TU109             1286.00      0.56      0.24
  TU11               154.00      0.70      1.45
  TU110             1286.00      0.56      0.24
  TU111                0.00      0.00      0.00
  TU112               -0.00      0.00      0.00
  TU113                0.00      0.00      0.00
  TU114                0.00      0.00      0.00
  TU115             1286.00      0.45      0.14
  TU116             1286.00      0.45      0.14
  TU117               -0.00      0.00      0.00
  TU118                0.00      0.00      0.00
  TU119             1286.00      0.45      0.14
  TU12                 0.00      0.00      0.00
  TU120             1286.00      0.45      0.14
  TU121                0.00      0.00      0.00
  TU122                0.00      0.00      0.00
  TU123               -0.00      0.00      0.00
  TU124                0.00      0.00      0.00
  TU125               -0.00      0.00      0.00
  TU126               -0.00      0.00      0.00
  TU127               -0.00      0.00      0.00
  TU128                0.00      0.00      0.00
  TU129                0.00      0.00      0.00
  TU13                 0.00      0.00      0.00
  TU130               -0.00      0.00      0.00
  TU131               -0.00      0.00      0.00
  TU132               66.00      0.29      0.28
  TU133               66.00      0.29      0.28
  TU134               -0.00      0.00      0.00
  TU135              126.00      0.28      0.18
  TU136              176.00      0.39      0.32
  TU137              176.00      0.25      0.11
  TU138              176.00      0.25      0.11
  TU139              176.00      0.17      0.05
  TU14               154.00      0.34      0.25
  TU140              176.00      0.17      0.05
  TU141                0.00      0.00      0.00
  TU142                0.00      0.00      0.00
  TU143               -0.00      0.00      0.00
  TU144              162.00      1.75     12.84
  TU145               -0.00      0.00      0.00
  TU146              162.00      0.71      1.41
  TU147              162.00      0.44      0.45
  TU148               -0.00      0.00      0.00
  TU149              108.00      0.75      2.08
  TU15                -0.00      0.00      0.00
  TU150              108.00      0.75      2.08
  TU151              270.00      0.38      0.24
  TU152              145.00      1.66     12.00
  TU15301            530.00      0.75      0.81
  TU15302            530.00      0.75      0.81
  TU1074               0.00      0.00      0.00
  TU154              530.00      0.52      0.33
  TU155               68.00      1.14      7.69
  TU156              598.00      0.59      0.42
  TU157              598.00      0.59      0.42
  TU158                0.00      0.00      0.00
  TU159              598.00      0.59      0.42
  TU16              2092.00      0.38      0.07
  TU160               58.00      1.03      6.59
  TU161              656.00      0.64      0.49
  TU162              572.00      0.41      0.18
  TU163              572.00      0.41      0.18
  TU164              572.00      0.41      0.19
  TU166               -0.00      0.00      0.00
  TU167               -0.00      0.00      0.00
  TU168                0.00      0.00      0.00
  TU169                0.00      0.00      0.00
  TU17                58.00      1.03      6.59
  TU170                0.00      0.00      0.00
  TU171              572.00      0.41      0.18
  TU17201             63.00      0.83      3.68
  TU17202              0.00      0.00      0.00
  TU1011A             63.00      0.83      3.68
  TU173               63.00      0.46      0.89
  TU174               -0.00      0.00      0.00
  TU175               63.00      0.29      0.29
  TU176              375.00      0.37      0.18
  TU177              509.00      0.50      0.31
  TU178              375.00      0.37      0.18
  TU179              221.00      0.63      0.88
  TU18                58.00      0.66      2.25
  TU180                0.00      0.00      0.00
  TU181                0.00      0.00      0.00
  TU182                0.00      0.00      0.00
  TU183                0.00      0.00      0.00
  TU184                0.00      0.00      0.00
  TU185              292.00      0.65      0.80
  TU186              126.00      0.34      0.28
  TU187              126.00      0.28      0.17
  TU188              572.00      0.41      0.18
  TU189              572.00      0.41      0.18
  TU19                 0.00      0.00      0.00
  TU190               54.00      0.71      2.78
  TU191                0.00      0.00      0.00
  TU192                0.00      0.00      0.00
  TU193                0.00      0.00      0.00
  TU194               -0.00      0.00      0.00
  TU195                0.00      0.00      0.00
  TU196                0.00      0.00      0.00
  TU197               -0.00      0.00      0.00
  TU198                0.00      0.00      0.00
  TU199                0.00      0.00      0.00
  TU2                221.00      2.52     26.17
  TU20                58.00      0.42      0.77
  TU200               -0.00      0.00      0.00
  TU201                0.00      0.00      0.00
  TU203                0.00      0.00      0.00
  TU204              630.00      0.28      0.06
  TU205              630.00      0.28      0.06
  TU21                54.00      0.45      0.95
  TU22               630.00      0.35      0.11
  TU23               630.00      0.35      0.11
  TU24               630.00      0.35      0.11
  TU25               630.00      0.35      0.11
  TU26               153.00      0.15      0.04
  TU27               153.00      0.15      0.04
  TU28               153.00      0.15      0.04
  TU29               153.00      0.15      0.04
  TU3                  0.00      0.00      0.00
  TU30                 0.00      0.00      0.00
  TU31                -0.00      0.00      0.00
  TU32                70.00      0.80      3.17
  TU33                70.00      0.32      0.35
  TU34                70.00      0.32      0.35
  TU35                 0.00      0.00      0.00
  TU36                 0.00      0.00      0.00
  TU37                70.00      0.20      0.11
  TU38               130.00      0.37      0.34
  TU39               162.00      1.85     14.72
  TU4                415.00      0.59      0.52
  TU40               162.00      1.18      4.96
  TU41               292.00      0.65      0.80
  TU42                 0.00      0.00      0.00
  TU43               348.00      0.49      0.38
  TU44               348.00      0.49      0.38
  TU45               419.00      0.59      0.53
  TU46               419.00      0.59      0.53
  TU47                -0.00      0.00      0.00
  TU48                 0.00      0.00      0.00
  TU49                 0.00      0.00      0.00
  TU5                415.00      0.59      0.52
  TU50                 0.00      0.00      0.00
  TU51                 0.00      0.00      0.00
  TU52                 0.00      0.00      0.00
  TU53                 0.00      0.00      0.00
  TU54                 0.00      0.00      0.00
  TU55                 0.00      0.00      0.00
  TU56                 0.00      0.00      0.00
  TU57                 0.00      0.00      0.00
  TU58                 0.00      0.00      0.00
  TU59                 0.00      0.00      0.00
  TU6                292.00      0.41      0.27
  TU60                54.00      1.11      8.27
  TU61                 0.00      0.00      0.00
  TU62               153.00      0.81      2.06
  TU63                 0.00      0.00      0.00
  TU64               153.00      0.81      2.06
  TU65                 0.00      0.00      0.00
  TU66               153.00      0.51      0.66
  TU67               153.00      0.43      0.45
  TU68               153.00      0.43      0.45
  TU69               153.00      0.22      0.08
  TU7                  0.00      0.00      0.00
  TU70               153.00      0.22      0.08
  TU71               153.00      0.22      0.08
  TU72                 0.00      0.00      0.00
  TU73                 0.00      0.00      0.00
  TU74                 0.00      0.00      0.00
  TU75                 0.00      0.00      0.00
  TU76                 0.00      0.00      0.00
  TU77                 0.00      0.00      0.00
  TU78                 0.00      0.00      0.00
  TU79                 0.00      0.00      0.00
  TU8                 97.00      1.05      5.01
  TU80                 0.00      0.00      0.00
  TU81                 0.00      0.00      0.00
  TU82                 0.00      0.00      0.00
  TU83                 0.00      0.00      0.00
  TU84                 0.00      0.00      0.00
  TU85                 0.00      0.00      0.00
  TU86                 0.00      0.00      0.00
  TU87                 0.00      0.00      0.00
  TU88                 0.00      0.00      0.00
  TU89                 0.00      0.00      0.00
  TU9                 57.00      0.96      5.57
  TU90                 0.00      0.00      0.00
  TU91                -0.00      0.00      0.00
  TU92                -0.00      0.00      0.00
  TU93                 0.00      0.00      0.00
  TU94                 0.00      0.00      0.00
  TU95                 0.00      0.00      0.00
  TU96                 0.00      0.00      0.00
  TU97                58.00      1.03      6.59
  TU98                58.00      0.66      2.25
  TU99                58.00      0.13      0.04
  TU4000               0.00      0.00      0.00
   
  Analysis ended Fri Dec  1 09:00:48 2023
