  Page 1                                    Fri Dec  1 09:06:51 2023

  ******************************************************************
  *                           E P A N E T                          *
  *                   Hydraulic and Water Quality                  *
  *                   Analysis for Pipe Networks                   *
  *                         Version 2.2                            *
  ******************************************************************
  
  Analysis begun Fri Dec  1 09:06:51 2023

   
  Node Results:
  ----------------------------------------------
                     Demand      Head  Pressure
  Node                 m3/h         m         m
  ----------------------------------------------
  3661                 0.00    428.82     50.68
  482                  0.00    428.83     82.83
  661                  0.00    427.87     97.87
  6610                 0.00    428.74      2.19
  6611                 0.00    428.53     93.53
  6612                 0.00    428.74     66.37
  6613                 0.00    428.51     73.51
  6615                 0.00    428.67     89.67
  6616                 0.00    428.14     67.14
  6617                 0.00    427.75     84.75
  6618                 0.00    428.52     80.52
  662                  0.00    428.84    100.84
  6620                 0.00    427.98    119.98
  6621                 0.00    427.98     99.98
  6622                 0.00    427.98     90.98
  6623                 0.00    427.98     76.98
  6624                 0.00    427.99     75.99
  6625                 0.00    427.82    115.82
  6626                 0.00    427.82    106.82
  6627                 0.00    427.87    106.87
  6628                 0.00    428.84     89.84
  6629                 0.00    428.84     88.84
  663                  0.00    428.77     87.77
  6630                 0.00    428.84      3.98
  6632                 0.00    428.84     88.84
  6633                 0.00    428.91     66.27
  6634                 0.00    428.92     57.92
  6635                 0.00    428.87     76.87
  6636                 0.00    428.87     72.87
  6637                 0.00    428.83     61.83
  6639                 0.00    428.74     68.74
  664                  0.00    428.68     80.68
  6640                 0.00    428.74     68.74
  6641                 0.00    428.74     70.06
  6642                 0.00    428.74     72.74
  6643                 0.00    428.75     76.75
  6644                 0.00    428.75     76.75
  6645                 0.00    428.76     78.76
  6646                 0.00    428.68     81.66
  6648                 0.00    428.68     82.67
  6649                 0.00    427.32     88.32
  665                  0.00    428.62     83.62
  666                  0.00    428.84     88.84
  6665                 0.00    428.49     63.35
  6666                 0.00    428.74     61.08
  667                  0.00    428.75     76.75
  668                  0.00    427.87     97.87
  669                  0.00    428.84     83.84
  1                   80.00    428.87     98.87
  10                  68.00    428.34     76.34
  100                  0.00    428.74     73.74
  100B                 0.00    428.74     70.74
  101                  0.00    428.51     75.51
  103                  0.00    425.99     86.99
  104                169.00    425.80     86.80
  105                  0.00    428.51     73.51
  106                  0.00    428.51     73.51
  107                  0.00    428.67     89.67
  108                  0.00    428.67     93.11
  109                  0.00    428.67     91.67
  11B                  0.00    428.61     85.61
  110                  0.00    428.51     82.51
  111                  0.00    428.46     90.48
  112                  0.00    428.48     86.48
  113                  0.00    428.39    105.39
  114                 44.00    428.12     80.12
  115                 55.00    427.87     81.87
  116                  0.00    428.03     83.03
  117                 74.00    427.66     84.66
  118                  0.00    427.75     88.75
  119                  0.00    427.75    104.94
  12                   0.00    428.58     98.24
  121                  0.00    428.29     78.29
  122                  0.00    428.03     81.03
  123                  0.00    428.03     82.03
  125                  0.00    428.28     77.28
  126                  0.00    428.28     80.28
  127                  0.00    428.28     84.95
  128                 70.00    428.12     66.12
  129                  0.00    427.93     71.93
  130                119.00    427.87     86.79
  130B                72.00    427.89     74.89
  132                  0.00    427.87     94.87
  134                  0.00    427.87    106.87
  135                  0.00    427.87    111.87
  137                  0.00    427.87    118.87
  139                  0.00    427.87     67.87
  14                   0.00    428.51     90.51
  140                  0.00    427.87     76.87
  141                  0.00    427.87     75.87
  142                  0.00    427.87     66.87
  143                  0.00    427.87     86.90
  144                 84.00    428.01     69.01
  146                  0.00    427.87     81.87
  147                 59.00    427.57    106.57
  148                 70.00    427.85     94.85
  149                  0.00    427.82    114.61
  15                   0.00    428.53     93.53
  150                  0.00    427.82    119.75
  151                  0.00    427.82    122.58
  152                  0.00    427.82    117.80
  153                  0.00    427.82    117.82
  154                  0.00    427.98    102.98
  157                  0.00    427.98    124.98
  158A                 0.00    427.98    106.98
  158B                 0.00    427.98    106.98
  16B                  0.00    428.53     94.53
  160                 68.00    428.81     61.81
  162                  0.00    428.78     60.78
  163                  0.00    428.74     54.74
  164                  0.00    428.66     69.00
  165                  0.00    428.49     67.19
  166                 82.00    428.49     67.48
  167                  0.00    428.49     57.85
  169                 53.00    428.53     62.03
  17A                  0.00    428.53     93.53
  170                  0.00    428.85     69.85
  17B                  0.00    428.53     93.53
  171                  0.00    428.87     76.87
  172                  0.00    428.87     88.87
  18B                  0.00    428.53    103.53
  19                   0.00    428.91     70.91
  2                    0.00    428.85    102.85
  20                  87.00    428.82     64.82
  2002                 0.00    428.84     78.84
  2003                 0.00    428.84     78.84
  21                   0.00    428.78     66.05
  22                   0.00    428.78     67.18
  222                  0.00    428.71     78.71
  24                   0.00    428.67     84.67
  25                   0.00    428.60     83.60
  26                   0.00    428.52     80.52
  27                   0.00    428.53     78.53
  28                   0.00    428.44     80.44
  29                   0.00    428.18     72.18
  3                    0.00    428.81     88.46
  30                   0.00    428.15     67.15
  3002                 0.00    428.82     42.82
  3004                 0.00    428.82     42.82
  3005                 0.00    428.82     42.82
  3008                 0.00    428.82     43.82
  3012                 0.00    428.82     58.09
  3013                 0.00    428.82     63.89
  3016                 0.00    428.85     63.85
  3017                 0.00    428.93     46.93
  3018                 0.00    428.89     51.89
  3019                 0.00    428.82     59.43
  3020                 0.00    428.82     60.71
  3024                 0.00    428.82     63.88
  31                  92.00    428.02     70.23
  3152                 0.00    428.82     62.62
  32                   0.00    428.07     70.07
  34                  68.00    427.82     76.80
  35                   0.00    427.98     90.98
  36                   0.00    427.98     99.98
  39                   0.00    427.98    114.98
  41                   0.00    427.98    120.98
  46                   0.00    428.89     52.89
  47                   0.00    428.61     70.43
  48                   0.00    428.83     84.83
  49                   0.00    428.83     76.83
  5                    0.00    428.79     81.79
  52                   0.00    428.83     77.83
  53                   0.00    428.92     72.92
  54                   0.00    428.90     83.90
  55                   0.00    428.82     98.82
  56                  57.00    428.79     94.79
  58                   0.00    428.79     95.79
  59                   0.00    428.79     99.79
  6                    0.00    428.75     76.75
  60                  47.00    427.91     82.91
  61                   0.00    427.91     88.91
  62                   0.00    428.75     74.75
  64                   0.00    428.84     97.84
  65                   0.00    428.84     88.84
  66                   0.00    428.84     89.84
  67                   0.00    428.84     96.84
  68                   0.00    428.84     89.84
  69                   0.00    428.84     77.84
  7                    0.00    428.71     75.71
  70                   0.00    428.84     88.84
  71                   0.00    428.84     91.84
  72                   0.00    428.75     72.75
  73                   0.00    428.75     73.75
  77                   0.00    428.75     72.75
  78                   0.00    428.75     88.61
  79                  51.00    428.71     75.71
  8                    0.00    428.76     78.76
  80                   0.00    428.68     79.68
  81                   0.00    428.68     69.68
  82                   0.00    428.68     70.68
  85                   0.00    428.84     89.84
  86                   0.00    428.84     91.84
  87                   0.00    428.74     68.74
  88                   0.00    428.74     75.74
  89                   0.00    428.74     61.74
  90                   0.00    428.74     72.74
  91                   0.00    428.74     56.74
  92                   0.00    428.74     68.74
  91B                  0.00    428.74     68.74
  94                  73.00    426.76     87.76
  95                   0.00    425.58     82.58
  97                 132.00    418.68     87.68
  99                  56.00    428.27     78.27
  74                   0.00    428.75     70.04
  1074                 0.00    428.75     70.75
  11A                 96.00    424.29     81.29
  1011                 0.00    424.41     81.41
  0                -1926.00    429.00      0.00  Reservoir
   
   
  Link Results:
  ----------------------------------------------
                       Flow  Velocity  Headloss
  Link                 m3/h       m/s    /1000m
  ----------------------------------------------
  TU1                 -0.00      0.00      0.00
  TU10                 0.00      0.00      0.00
  TU100                0.00      0.00      0.00
  TU101               -0.00      0.00      0.00
  TU102                0.00      0.00      0.00
  TU103                0.00      0.00      0.00
  TU104                0.00      0.00      0.00
  TU105              645.00      0.28      0.07
  TU106              645.00      0.28      0.07
  TU107                0.00      0.00      0.00
  TU108              692.00      0.30      0.08
  TU109              692.00      0.30      0.08
  TU11                -0.00      0.00      0.00
  TU110              692.00      0.30      0.08
  TU111                0.00      0.00      0.00
  TU112               -0.00      0.00      0.00
  TU113               57.00      0.30      0.35
  TU114               57.00      0.30      0.35
  TU115              829.00      0.29      0.06
  TU116              829.00      0.29      0.06
  TU117               -0.00      0.00      0.00
  TU118                0.00      0.00      0.00
  TU119              829.00      0.29      0.06
  TU12               169.00      1.93     15.92
  TU120              829.00      0.29      0.06
  TU121                0.00      0.00      0.00
  TU122                0.00      0.00      0.00
  TU123               -0.00      0.00      0.00
  TU124                0.00      0.00      0.00
  TU125               -0.00      0.00      0.00
  TU126               -0.00      0.00      0.00
  TU127               -0.00      0.00      0.00
  TU128                0.00      0.00      0.00
  TU129                0.00      0.00      0.00
  TU13               169.00      1.23      5.36
  TU130               -0.00      0.00      0.00
  TU131               82.00      0.36      0.41
  TU132               53.00      0.23      0.19
  TU133              135.00      0.59      1.01
  TU134               -0.00      0.00      0.00
  TU135              135.00      0.30      0.20
  TU136              203.00      0.45      0.41
  TU137              203.00      0.29      0.14
  TU138              203.00      0.29      0.14
  TU139              203.00      0.20      0.06
  TU14               169.00      0.37      0.30
  TU140              203.00      0.20      0.06
  TU141                0.00      0.00      0.00
  TU142                0.00      0.00      0.00
  TU143               -0.00      0.00      0.00
  TU144               -0.00      0.00      0.00
  TU145               -0.00      0.00      0.00
  TU146                0.00      0.00      0.00
  TU147               -0.00      0.00      0.00
  TU148                0.00      0.00      0.00
  TU149               -0.00      0.00      0.00
  TU15                -0.00      0.00      0.00
  TU150               -0.00      0.00      0.00
  TU151               -0.00      0.00      0.00
  TU152               56.00      0.64      2.11
  TU15301             56.00      0.08      0.01
  TU15302             56.00      0.08      0.01
  TU1074               0.00      0.00      0.00
  TU154               56.00      0.06      0.01
  TU155               68.00      1.14      7.69
  TU156              124.00      0.12      0.02
  TU157              124.00      0.12      0.02
  TU158                0.00      0.00      0.00
  TU159              124.00      0.12      0.02
  TU16              1926.00      0.35      0.06
  TU160                0.00      0.00      0.00
  TU161              124.00      0.12      0.02
  TU162              521.00      0.38      0.15
  TU163              470.00      0.34      0.13
  TU164              521.00      0.38      0.16
  TU166               -0.00      0.00      0.00
  TU167               -0.00      0.00      0.00
  TU168                0.00      0.00      0.00
  TU169                0.00      0.00      0.00
  TU17                 0.00      0.00      0.00
  TU170                0.00      0.00      0.00
  TU171              470.00      0.34      0.13
  TU17201            228.00      3.00     39.25
  TU17202            132.00      1.74     14.25
  TU1011A             96.00      1.26      7.94
  TU173              228.00      1.67      9.30
  TU174               73.00      1.30     10.03
  TU175              301.00      1.38      4.96
  TU176              169.00      0.17      0.04
  TU177              169.00      0.17      0.04
  TU178              169.00      0.17      0.04
  TU179                0.00      0.00      0.00
  TU18                 0.00      0.00      0.00
  TU180                0.00      0.00      0.00
  TU181                0.00      0.00      0.00
  TU182                0.00      0.00      0.00
  TU183               47.00      0.54      1.54
  TU184                0.00      0.00      0.00
  TU185              173.00      0.38      0.31
  TU186              135.00      0.36      0.32
  TU187              135.00      0.30      0.20
  TU188              807.00      0.58      0.34
  TU189              807.00      0.58      0.34
  TU19                 0.00      0.00      0.00
  TU190               -0.00      0.00      0.00
  TU191               -0.00      0.00      0.00
  TU192                0.00      0.00      0.00
  TU193               -0.00      0.00      0.00
  TU194               -0.00      0.00      0.00
  TU195                0.00      0.00      0.00
  TU196                0.00      0.00      0.00
  TU197               -0.00      0.00      0.00
  TU198                0.00      0.00      0.00
  TU199                0.00      0.00      0.00
  TU2                  0.00      0.00      0.00
  TU20                 0.00      0.00      0.00
  TU200               -0.00      0.00      0.00
  TU201                0.00      0.00      0.00
  TU203                0.00      0.00      0.00
  TU204              894.00      0.39      0.12
  TU205              894.00      0.39      0.12
  TU21                -0.00      0.00      0.00
  TU22               807.00      0.45      0.18
  TU23               807.00      0.45      0.18
  TU24               807.00      0.45      0.18
  TU25               807.00      0.45      0.18
  TU26               634.00      0.62      0.46
  TU27               634.00      0.62      0.46
  TU28               634.00      0.62      0.46
  TU29               634.00      0.62      0.46
  TU3                  0.00      0.00      0.00
  TU30                 0.00      0.00      0.00
  TU31                -0.00      0.00      0.00
  TU32                74.00      0.84      3.51
  TU33                74.00      0.34      0.39
  TU34               129.00      0.59      1.05
  TU35                 0.00      0.00      0.00
  TU36                 0.00      0.00      0.00
  TU37               129.00      0.37      0.33
  TU38               173.00      0.49      0.57
  TU39                -0.00      0.00      0.00
  TU4                 56.00      0.08      0.01
  TU40                -0.00      0.00      0.00
  TU41               173.00      0.38      0.31
  TU42                 0.00      0.00      0.00
  TU43               173.00      0.24      0.11
  TU44               173.00      0.24      0.11
  TU45               173.00      0.24      0.11
  TU46               173.00      0.24      0.11
  TU47                -0.00      0.00      0.00
  TU48                 0.00      0.00      0.00
  TU49                 0.00      0.00      0.00
  TU5                 56.00      0.08      0.01
  TU50                 0.00      0.00      0.00
  TU51                 0.00      0.00      0.00
  TU52                 0.00      0.00      0.00
  TU53                 0.00      0.00      0.00
  TU54                 0.00      0.00      0.00
  TU55                 0.00      0.00      0.00
  TU56                 0.00      0.00      0.00
  TU57                 0.00      0.00      0.00
  TU58                68.00      1.21      8.81
  TU59                68.00      0.19      0.11
  TU6                173.00      0.24      0.11
  TU60                 0.00      0.00      0.00
  TU61                 0.00      0.00      0.00
  TU62                -0.00      0.00      0.00
  TU63                 0.00      0.00      0.00
  TU64                 0.00      0.00      0.00
  TU65                59.00      1.22      9.72
  TU66                59.00      0.20      0.12
  TU67               129.00      0.37      0.33
  TU68               129.00      0.37      0.33
  TU69               197.00      0.28      0.13
  TU7                  0.00      0.00      0.00
  TU70               289.00      0.41      0.27
  TU71               289.00      0.41      0.27
  TU72                 0.00      0.00      0.00
  TU73               119.00      0.26      0.16
  TU74               191.00      0.42      0.37
  TU75               191.00      0.42      0.37
  TU76               275.00      0.61      0.72
  TU77               345.00      0.76      1.09
  TU78                 0.00      0.00      0.00
  TU79                 0.00      0.00      0.00
  TU8                  0.00      0.00      0.00
  TU80                 0.00      0.00      0.00
  TU81                 0.00      0.00      0.00
  TU82                 0.00      0.00      0.00
  TU83                 0.00      0.00      0.00
  TU84                 0.00      0.00      0.00
  TU85                 0.00      0.00      0.00
  TU86                 0.00      0.00      0.00
  TU87                 0.00      0.00      0.00
  TU88                 0.00      0.00      0.00
  TU89                 0.00      0.00      0.00
  TU9                  0.00      0.00      0.00
  TU90                 0.00      0.00      0.00
  TU91                -0.00      0.00      0.00
  TU92                -0.00      0.00      0.00
  TU93                 0.00      0.00      0.00
  TU94                 0.00      0.00      0.00
  TU95                 0.00      0.00      0.00
  TU96                 0.00      0.00      0.00
  TU97                 0.00      0.00      0.00
  TU98                 0.00      0.00      0.00
  TU99                 0.00      0.00      0.00
  TU4000               0.00      0.00      0.00
   
  Analysis ended Fri Dec  1 09:06:51 2023
