  Page 1                                    Fri Dec  1 08:53:10 2023

  ******************************************************************
  *                           E P A N E T                          *
  *                   Hydraulic and Water Quality                  *
  *                   Analysis for Pipe Networks                   *
  *                         Version 2.2                            *
  ******************************************************************
  
  Analysis begun Fri Dec  1 08:53:10 2023

   
  Node Results:
  ----------------------------------------------
                     Demand      Head  Pressure
  Node                 m3/h         m         m
  ----------------------------------------------
  3661                 0.00    428.98     50.84
  482                  0.00    428.98     82.98
  661                  0.00    428.95     98.95
  6610                 0.00    428.91      5.17
  6611                 0.00    428.87     93.87
  6612                 0.00    428.91     66.54
  6613                 0.00    428.86     73.86
  6615                 0.00    428.97     89.97
  6616                 0.00    428.95     67.95
  6617                 0.00    428.92     85.92
  6618                 0.00    428.96     80.96
  662                  0.00    428.97    100.97
  6620                 0.00    428.94    120.94
  6621                 0.00    428.94    100.94
  6622                 0.00    428.94     91.94
  6623                 0.00    428.94     77.94
  6624                 0.00    428.94     76.94
  6625                 0.00    428.75    116.75
  6626                 0.00    428.86    107.86
  6627                 0.00    428.95    107.95
  6628                 0.00    428.97     89.97
  6629                 0.00    428.97     88.97
  663                  0.00    428.94     87.94
  6630                 0.00    428.97      4.11
  6632                 0.00    428.97     88.97
  6633                 0.00    428.99     66.35
  6634                 0.00    428.99     57.99
  6635                 0.00    428.99     76.99
  6636                 0.00    428.99     72.99
  6637                 0.00    428.98     61.98
  6639                 0.00    428.91     68.91
  664                  0.00    428.92     80.92
  6640                 0.00    428.91     68.91
  6641                 0.00    428.91     70.23
  6642                 0.00    428.91     72.91
  6643                 0.00    428.92     76.92
  6644                 0.00    428.93     76.93
  6645                 0.00    428.93     78.93
  6646                 0.00    428.92     81.90
  6648                 0.00    428.92     82.91
  6649                 0.00    428.91     89.91
  665                  0.00    428.91     83.91
  666                  0.00    428.97     88.97
  6665                 0.00    428.95     63.81
  6666                 0.00    428.97     61.31
  667                  0.00    428.93     76.93
  668                  0.00    428.95     98.95
  669                  0.00    428.97     83.97
  1                    0.00    428.98     98.98
  10                   0.00    428.92     76.92
  100                  0.00    428.91     73.91
  100B                 0.00    428.91     70.91
  101                  0.00    428.86     75.86
  103                  0.00    428.86     89.86
  104                  0.00    428.86     89.86
  105                  0.00    428.86     73.86
  106                  0.00    428.86     73.86
  107                  0.00    428.97     89.97
  108                  0.00    428.97     93.41
  109                  0.00    428.97     91.97
  11B                108.00    428.90     85.90
  110                  0.00    428.96     82.96
  111                  0.00    428.95     90.97
  112                  0.00    428.96     86.96
  113                  0.00    428.94    105.94
  114                  0.00    428.92     80.92
  115                  0.00    428.92     82.92
  116                  0.00    428.92     83.92
  117                  0.00    428.92     85.92
  118                  0.00    428.92     89.92
  119                  0.00    428.92    106.11
  12                   0.00    428.88     98.54
  121                 63.00    428.92     78.92
  122                  0.00    428.92     81.92
  123                  0.00    428.92     82.92
  125                  0.00    428.92     77.92
  126                  0.00    428.92     80.92
  127                  0.00    428.92     85.59
  128                  0.00    428.95     66.95
  129                  0.00    428.95     72.95
  130                  0.00    428.95     87.87
  130B                 0.00    428.95     75.95
  132                  0.00    428.95     95.95
  134                  0.00    428.95    107.95
  135                  0.00    428.95    112.95
  137                  0.00    428.95    119.95
  139                  0.00    428.95     68.95
  14                 100.00    428.86     90.86
  140                  0.00    428.95     77.95
  141                  0.00    428.95     76.95
  142                  0.00    428.95     67.95
  143                  0.00    428.95     87.98
  144                  0.00    428.95     69.95
  146                  0.00    428.90     82.90
  147                  0.00    428.86    107.86
  148                  0.00    428.89     95.89
  149                  0.00    428.75    115.54
  15                   0.00    428.87     93.87
  150                  0.00    428.63    120.56
  151                  0.00    428.37    123.13
  152                 70.00    426.38    116.36
  153                  0.00    427.05    117.05
  154                  0.00    428.94    103.94
  157                  0.00    428.94    125.94
  158A                 0.00    428.94    107.94
  158B                 0.00    428.94    107.94
  16B                  0.00    428.87     94.87
  160                  0.00    428.98     61.98
  162                  0.00    428.98     60.98
  163                  0.00    428.97     54.97
  164                 51.00    428.95     69.29
  165                  0.00    428.95     67.65
  166                  0.00    428.95     67.94
  167                  0.00    428.95     58.31
  169                  0.00    428.95     62.45
  17A                  0.00    428.87     93.87
  170                  0.00    428.98     69.98
  17B                  0.00    428.87     93.87
  171                  0.00    428.99     76.99
  172                  0.00    428.99     88.99
  18B                  0.00    428.87    103.87
  19                   0.00    428.99     70.99
  2                    0.00    428.97    102.97
  20                   0.00    428.98     64.98
  2002                 0.00    428.97     78.97
  2003                 0.00    428.97     78.97
  21                   0.00    428.98     66.25
  22                   0.00    428.98     67.38
  222                  0.00    428.98     78.98
  24                   0.00    428.97     84.97
  25                   0.00    428.97     83.97
  26                   0.00    428.96     80.96
  27                   0.00    428.96     78.96
  28                  56.00    428.96     80.96
  29                   0.00    428.95     72.95
  3                    0.00    428.96     88.61
  30                   0.00    428.95     67.95
  3002                 0.00    428.98     42.98
  3004                 0.00    428.98     42.98
  3005                 0.00    428.98     42.98
  3008                 0.00    428.98     43.98
  3012                 0.00    428.98     58.25
  3013                 0.00    428.98     64.05
  3016                 0.00    428.99     63.99
  3017                 0.00    428.99     46.99
  3018                 0.00    428.99     51.99
  3019                 0.00    428.98     59.59
  3020                 0.00    428.98     60.87
  3024                 0.00    428.98     64.04
  31                   0.00    428.94     71.15
  3152                 0.00    428.98     62.78
  32                   0.00    428.95     70.95
  34                   0.00    428.94     77.92
  35                   0.00    428.94     91.94
  36                   0.00    428.94    100.94
  39                   0.00    428.94    115.94
  41                   0.00    428.94    121.94
  46                   0.00    428.99     52.99
  47                   0.00    428.95     70.77
  48                   0.00    428.98     84.98
  49                   0.00    428.98     76.98
  5                    0.00    428.95     81.95
  52                   0.00    428.98     77.98
  53                   0.00    428.99     72.99
  54                   0.00    428.98     83.98
  55                   0.00    428.98     98.98
  56                   0.00    428.98     94.98
  58                   0.00    428.98     95.98
  59                   0.00    428.98     99.98
  6                    0.00    428.93     76.93
  60                   0.00    428.96     83.96
  61                   0.00    428.96     89.96
  62                   0.00    428.93     74.93
  64                   0.00    428.97     97.97
  65                   0.00    428.97     88.97
  66                   0.00    428.97     89.97
  67                   0.00    428.97     96.97
  68                   0.00    428.97     89.97
  69                   0.00    428.97     77.97
  7                    0.00    428.93     75.93
  70                   0.00    428.97     88.97
  71                   0.00    428.97     91.97
  72                   0.00    428.93     72.93
  73                   0.00    428.92     73.92
  77                   0.00    428.93     72.93
  78                   0.00    428.93     88.79
  79                  48.00    428.93     75.93
  8                    0.00    428.93     78.93
  80                   0.00    428.92     79.92
  81                   0.00    428.92     69.92
  82                   0.00    428.92     70.92
  85                   0.00    428.97     89.97
  86                   0.00    428.97     91.97
  87                 112.00    428.91     68.91
  88                   0.00    428.91     75.91
  89                   0.00    428.91     61.91
  90                   0.00    428.91     72.91
  91                   0.00    428.91     56.91
  92                   0.00    428.91     68.91
  91B                  0.00    428.91     68.91
  94                   0.00    428.91     89.91
  95                   0.00    428.91     85.91
  97                   0.00    428.91     97.91
  99                   0.00    428.91     78.91
  74                   0.00    428.92     70.21
  1074                 0.00    428.92     70.92
  11A                  0.00    428.91     85.91
  1011                 0.00    428.91     85.91
  0                 -608.00    429.00      0.00  Reservoir
   
   
  Link Results:
  ----------------------------------------------
                       Flow  Velocity  Headloss
  Link                 m3/h       m/s    /1000m
  ----------------------------------------------
  TU1                 -0.00      0.00      0.00
  TU10                 0.00      0.00      0.00
  TU100                0.00      0.00      0.00
  TU101                0.00      0.00      0.00
  TU102                0.00      0.00      0.00
  TU103                0.00      0.00      0.00
  TU104                0.00      0.00      0.00
  TU105              368.00      0.16      0.02
  TU106              368.00      0.16      0.02
  TU107                0.00      0.00      0.00
  TU108              368.00      0.16      0.02
  TU109              368.00      0.16      0.02
  TU11                -0.00      0.00      0.00
  TU110              368.00      0.16      0.02
  TU111                0.00      0.00      0.00
  TU112               -0.00      0.00      0.00
  TU113                0.00      0.00      0.00
  TU114                0.00      0.00      0.00
  TU115              368.00      0.13      0.01
  TU116              368.00      0.13      0.01
  TU117               -0.00      0.00      0.00
  TU118                0.00      0.00      0.00
  TU119              368.00      0.13      0.01
  TU12                 0.00      0.00      0.00
  TU120              368.00      0.13      0.01
  TU121                0.00      0.00      0.00
  TU122                0.00      0.00      0.00
  TU123               -0.00      0.00      0.00
  TU124                0.00      0.00      0.00
  TU125               -0.00      0.00      0.00
  TU126               -0.00      0.00      0.00
  TU127               -0.00      0.00      0.00
  TU128                0.00      0.00      0.00
  TU129                0.00      0.00      0.00
  TU13                 0.00      0.00      0.00
  TU130               -0.00      0.00      0.00
  TU131               -0.00      0.00      0.00
  TU132                0.00      0.00      0.00
  TU133               -0.00      0.00      0.00
  TU134               -0.00      0.00      0.00
  TU135               51.00      0.11      0.03
  TU136               51.00      0.11      0.03
  TU137               51.00      0.07      0.01
  TU138               51.00      0.07      0.01
  TU139               51.00      0.05      0.01
  TU14               100.00      0.22      0.12
  TU140               51.00      0.05      0.00
  TU141                0.00      0.00      0.00
  TU142                0.00      0.00      0.00
  TU143               -0.00      0.00      0.00
  TU144               -0.00      0.00      0.00
  TU145               -0.00      0.00      0.00
  TU146               -0.00      0.00      0.00
  TU147               -0.00      0.00      0.00
  TU148               -0.00      0.00      0.00
  TU149               -0.00      0.00      0.00
  TU15                -0.00      0.00      0.00
  TU150               -0.00      0.00      0.00
  TU151               -0.00      0.00      0.00
  TU152               -0.00      0.00      0.00
  TU15301            112.00      0.16      0.05
  TU15302            112.00      0.16      0.05
  TU1074               0.00      0.00      0.00
  TU154              112.00      0.11      0.02
  TU155                0.00      0.00      0.00
  TU156              112.00      0.11      0.02
  TU157              112.00      0.11      0.02
  TU158                0.00      0.00      0.00
  TU159              112.00      0.11      0.02
  TU16               608.00      0.11      0.01
  TU160                0.00      0.00      0.00
  TU161              112.00      0.11      0.02
  TU162              256.00      0.18      0.04
  TU163              208.00      0.15      0.03
  TU164              256.00      0.18      0.04
  TU166               -0.00      0.00      0.00
  TU167               -0.00      0.00      0.00
  TU168                0.00      0.00      0.00
  TU169                0.00      0.00      0.00
  TU17                -0.00      0.00      0.00
  TU170                0.00      0.00      0.00
  TU171              208.00      0.15      0.03
  TU17201             -0.00      0.00      0.00
  TU17202              0.00      0.00      0.00
  TU1011A             -0.00      0.00      0.00
  TU173               -0.00      0.00      0.00
  TU174               -0.00      0.00      0.00
  TU175               -0.00      0.00      0.00
  TU176              100.00      0.10      0.02
  TU177              208.00      0.20      0.06
  TU178              100.00      0.10      0.02
  TU179                0.00      0.00      0.00
  TU18                 0.00      0.00      0.00
  TU180                0.00      0.00      0.00
  TU181                0.00      0.00      0.00
  TU182                0.00      0.00      0.00
  TU183                0.00      0.00      0.00
  TU184                0.00      0.00      0.00
  TU185               63.00      0.14      0.05
  TU186               51.00      0.14      0.06
  TU187               51.00      0.11      0.03
  TU188              189.00      0.14      0.02
  TU189              189.00      0.14      0.02
  TU19                 0.00      0.00      0.00
  TU190               70.00      0.92      4.46
  TU191               -0.00      0.00      0.00
  TU192                0.00      0.00      0.00
  TU193                0.00      0.00      0.00
  TU194               -0.00      0.00      0.00
  TU195                0.00      0.00      0.00
  TU196                0.00      0.00      0.00
  TU197                0.00      0.00      0.00
  TU198                0.00      0.00      0.00
  TU199                0.00      0.00      0.00
  TU2                  0.00      0.00      0.00
  TU20                 0.00      0.00      0.00
  TU200               -0.00      0.00      0.00
  TU201                0.00      0.00      0.00
  TU203                0.00      0.00      0.00
  TU204              189.00      0.08      0.01
  TU205              189.00      0.08      0.01
  TU21                70.00      0.59      1.52
  TU22               189.00      0.10      0.01
  TU23               189.00      0.10      0.01
  TU24               189.00      0.10      0.01
  TU25               189.00      0.10      0.01
  TU26                70.00      0.07      0.01
  TU27                70.00      0.07      0.01
  TU28                70.00      0.07      0.01
  TU29               126.00      0.12      0.02
  TU3                  0.00      0.00      0.00
  TU30                 0.00      0.00      0.00
  TU31                -0.00      0.00      0.00
  TU32                 0.00      0.00      0.00
  TU33                 0.00      0.00      0.00
  TU34                 0.00      0.00      0.00
  TU35                 0.00      0.00      0.00
  TU36                 0.00      0.00      0.00
  TU37                 0.00      0.00      0.00
  TU38                 0.00      0.00      0.00
  TU39                -0.00      0.00      0.00
  TU4                 -0.00      0.00      0.00
  TU40                -0.00      0.00      0.00
  TU41                -0.00      0.00      0.00
  TU42                 0.00      0.00      0.00
  TU43                63.00      0.09      0.02
  TU44                63.00      0.09      0.02
  TU45                63.00      0.09      0.02
  TU46                63.00      0.09      0.02
  TU47                -0.00      0.00      0.00
  TU48                 0.00      0.00      0.00
  TU49                 0.00      0.00      0.00
  TU5                  0.00      0.00      0.00
  TU50                 0.00      0.00      0.00
  TU51                 0.00      0.00      0.00
  TU52                 0.00      0.00      0.00
  TU53                 0.00      0.00      0.00
  TU54                 0.00      0.00      0.00
  TU55                 0.00      0.00      0.00
  TU56                 0.00      0.00      0.00
  TU57                 0.00      0.00      0.00
  TU58                 0.00      0.00      0.00
  TU59                 0.00      0.00      0.00
  TU6                 63.00      0.09      0.02
  TU60                70.00      1.44     13.28
  TU61                 0.00      0.00      0.00
  TU62                70.00      0.37      0.50
  TU63                 0.00      0.00      0.00
  TU64                70.00      0.37      0.50
  TU65                 0.00      0.00      0.00
  TU66                70.00      0.23      0.16
  TU67                70.00      0.20      0.11
  TU68                70.00      0.20      0.11
  TU69                70.00      0.10      0.02
  TU7                  0.00      0.00      0.00
  TU70                70.00      0.10      0.02
  TU71                70.00      0.10      0.02
  TU72                 0.00      0.00      0.00
  TU73                 0.00      0.00      0.00
  TU74                 0.00      0.00      0.00
  TU75                 0.00      0.00      0.00
  TU76                 0.00      0.00      0.00
  TU77                 0.00      0.00      0.00
  TU78                 0.00      0.00      0.00
  TU79                 0.00      0.00      0.00
  TU8                  0.00      0.00      0.00
  TU80                 0.00      0.00      0.00
  TU81                 0.00      0.00      0.00
  TU82                 0.00      0.00      0.00
  TU83                 0.00      0.00      0.00
  TU84                 0.00      0.00      0.00
  TU85                 0.00      0.00      0.00
  TU86                 0.00      0.00      0.00
  TU87                 0.00      0.00      0.00
  TU88                 0.00      0.00      0.00
  TU89                 0.00      0.00      0.00
  TU9                  0.00      0.00      0.00
  TU90                 0.00      0.00      0.00
  TU91                -0.00      0.00      0.00
  TU92                -0.00      0.00      0.00
  TU93                 0.00      0.00      0.00
  TU94                 0.00      0.00      0.00
  TU95                 0.00      0.00      0.00
  TU96                 0.00      0.00      0.00
  TU97                 0.00      0.00      0.00
  TU98                 0.00      0.00      0.00
  TU99                 0.00      0.00      0.00
  TU4000               0.00      0.00      0.00
   
  Analysis ended Fri Dec  1 08:53:10 2023
