  Page 1                                    Fri Dec  1 09:07:44 2023

  ******************************************************************
  *                           E P A N E T                          *
  *                   Hydraulic and Water Quality                  *
  *                   Analysis for Pipe Networks                   *
  *                         Version 2.2                            *
  ******************************************************************
  
  Analysis begun Fri Dec  1 09:07:44 2023

   
  Node Results:
  ----------------------------------------------
                     Demand      Head  Pressure
  Node                 m3/h         m         m
  ----------------------------------------------
  3661                 0.00    428.56     50.42
  482                  0.00    428.32     82.32
  661                  0.00    426.49     96.49
  6610                 0.00    426.78      3.82
  6611                 0.00    426.68     91.68
  6612                 0.00    427.28     64.91
  6613                 0.00    425.86     70.86
  6615                 0.00    428.25     89.25
  6616                 0.00    427.22     66.22
  6617                 0.00    427.38     84.38
  6618                 0.00    427.93     79.93
  662                  0.00    428.21    100.21
  6620                 0.00    424.54    116.54
  6621                 0.00    425.99     97.99
  6622                 0.00    426.32     89.32
  6623                 0.00    426.65     75.65
  6624                 0.00    426.76     74.76
  6625                 0.00    426.19    114.19
  6626                 0.00    426.30    105.30
  6627                 0.00    426.49    105.49
  6628                 0.00    427.55     88.55
  6629                 0.00    427.55     87.55
  663                  0.00    427.85     86.85
  6630                 0.00    427.37      2.51
  6632                 0.00    427.84     87.84
  6633                 0.00    428.65     66.01
  6634                 0.00    428.70     57.70
  6635                 0.00    428.67     76.67
  6636                 0.00    428.67     72.67
  6637                 0.00    428.59     61.59
  6639                 0.00    426.91     66.91
  664                  0.00    427.59     79.59
  6640                 0.00    426.89     66.89
  6641                 0.00    427.15     68.47
  6642                 0.00    427.15     71.15
  6643                 0.00    427.40     75.40
  6644                 0.00    427.51     75.51
  6645                 0.00    427.55     77.55
  6646                 0.00    425.58     78.56
  6648                 0.00    425.87     79.86
  6649                 0.00    427.24     88.24
  665                  0.00    427.46     82.46
  666                  0.00    427.66     87.66
  6665                 0.00    428.29     63.15
  6666                 0.00    428.51     60.85
  667                  0.00    427.50     75.50
  668                  0.00    426.48     96.48
  669                  0.00    427.55     82.55
  1                   85.00    428.43     98.43
  10                  68.00    427.00     75.00
  100                  0.00    427.15     72.15
  100B                 0.00    426.89     68.89
  101                 94.00    425.59     72.59
  103                 53.00    426.58     87.58
  104                  0.00    426.58     87.58
  105                 57.00    425.85     70.85
  106                  0.00    425.86     70.86
  107                  0.00    428.25     89.25
  108                  0.00    428.25     92.69
  109                  0.00    428.25     91.25
  11B                142.00    427.39     84.39
  110                 64.00    427.90     81.90
  111                  0.00    427.81     89.83
  112                  0.00    427.86     85.86
  113                  0.00    427.69    104.69
  114                 59.00    427.43     79.43
  115                 51.00    427.38     81.38
  116                  0.00    427.41     82.41
  117                  0.00    427.38     84.38
  118                  0.00    427.38     88.38
  119                  0.00    427.38    104.57
  12                   0.00    427.20     96.86
  121                 63.00    427.51     77.51
  122                  0.00    427.41     80.41
  123                  0.00    427.41     81.41
  125                  0.00    427.50     76.50
  126                 64.00    427.40     79.40
  127                  0.00    427.40     84.07
  128                  0.00    427.19     65.19
  129                  0.00    426.74     70.74
  130                133.00    426.53     85.45
  130B                68.00    426.63     73.63
  132                  0.00    424.55     91.55
  134                  0.00    426.49    105.49
  135                  0.00    426.49    110.49
  137                  0.00    426.49    117.49
  139                 69.00    426.02     66.02
  14                  40.00    426.89     88.89
  140                  0.00    426.27     75.27
  141                  0.00    426.25     74.25
  142                  0.00    426.02     65.02
  143                 62.00    421.70     80.73
  144                 87.00    426.95     67.95
  146                  0.00    426.47     80.47
  147                 70.00    425.96    104.96
  148                 64.00    426.43     93.43
  149                  0.00    426.19    112.98
  15                 213.00    426.07     91.07
  150                  0.00    426.05    117.98
  151                  0.00    425.77    120.53
  152                 73.00    423.62    113.60
  153                  0.00    424.35    114.35
  154                  0.00    425.83    100.83
  157                 46.00    423.77    120.77
  158A                78.00    411.70     90.70
  158B                78.00    411.67     90.67
  16B                  0.00    426.94     92.94
  160                 59.00    428.58     61.58
  162                  0.00    428.54     60.54
  163                  0.00    428.51     54.51
  164                  0.00    428.42     68.76
  165                 62.00    428.29     66.99
  166                  0.00    428.29     67.28
  167                  0.00    428.29     57.65
  169                 76.00    428.22     61.72
  17A                  0.00    426.68     91.68
  170                  0.00    428.64     69.64
  17B                  0.00    426.68     91.68
  171                  0.00    428.67     76.67
  172                  0.00    428.67     88.67
  18B                  0.00    426.68    101.68
  19                   0.00    428.65     70.65
  2                    0.00    428.25    102.25
  20                   0.00    428.56     64.56
  2002                 0.00    427.55     77.55
  2003                 0.00    427.55     77.55
  21                  64.00    428.49     65.76
  22                   0.00    428.48     66.88
  222                  0.00    428.34     78.34
  24                   0.00    428.25     84.25
  25                   0.00    428.11     83.11
  26                   0.00    427.93     79.93
  27                   0.00    427.97     77.97
  28                   0.00    427.79     79.79
  29                   0.00    427.30     71.30
  3                    0.00    428.06     87.71
  30                   0.00    427.24     66.24
  3002                 0.00    428.56     42.56
  3004                 0.00    428.56     42.56
  3005                 0.00    428.56     42.56
  3008                 0.00    428.56     43.56
  3012                 0.00    428.56     57.83
  3013                 0.00    428.56     63.63
  3016                 0.00    428.62     63.62
  3017                 0.00    428.78     46.78
  3018                 0.00    428.71     51.71
  3019                 0.00    428.56     59.17
  3020                 0.00    428.56     60.45
  3024                 0.00    428.56     63.62
  31                   0.00    426.92     69.13
  3152                 0.00    428.56     62.36
  32                   0.00    427.05     69.05
  34                  72.00    426.47     75.45
  35                   0.00    426.32     89.32
  36                   0.00    425.99     97.99
  39                   0.00    425.36    112.36
  41                   0.00    424.25    117.25
  46                   0.00    428.71     52.71
  47                   0.00    428.37     70.19
  48                   0.00    428.20     84.20
  49                  83.00    427.34     75.34
  5                    0.00    427.95     80.95
  52                   0.00    427.34     76.34
  53                   0.00    428.70     72.70
  54                   0.00    428.57     83.57
  55                   0.00    428.43     98.43
  56                   0.00    428.43     94.43
  58                   0.00    428.43     95.43
  59                   0.00    428.43     99.43
  6                    0.00    427.51     75.51
  60                   0.00    428.06     83.06
  61                   0.00    428.06     89.06
  62                   0.00    427.43     73.43
  64                   0.00    428.05     97.05
  65                  81.00    427.52     87.52
  66                  86.00    427.84     88.84
  67                 105.00    427.70     95.70
  68                   0.00    427.37     88.37
  69                  49.00    426.81     75.81
  7                   63.00    427.70     74.70
  70                   0.00    427.55     87.55
  71                 118.00    424.36     87.36
  72                  99.00    427.43     71.43
  73                 137.00    427.39     72.39
  77                   0.00    427.43     71.43
  78                   0.00    427.43     87.29
  79                   0.00    427.69     74.69
  8                   71.00    427.27     77.27
  80                   0.00    427.54     78.54
  81                   0.00    425.87     66.87
  82                 132.00    424.79     66.79
  85                   0.00    427.55     88.55
  86                   0.00    427.55     90.55
  87                   0.00    427.31     67.31
  88                   0.00    427.28     74.28
  89                   0.00    427.21     60.21
  90                   0.00    427.15     71.15
  91                 186.00    426.46     54.46
  92                  62.00    426.73     66.73
  91B                  0.00    426.78     66.78
  94                   0.00    427.24     88.24
  95                   0.00    426.74     83.74
  97                   0.00    426.41     95.41
  99                   0.00    427.21     77.21
  74                  79.00    425.07     66.36
  1074                 0.00    427.37     69.37
  11A                115.00    426.25     83.25
  1011                 0.00    426.41     83.41
  0                -3680.00    429.00      0.00  Reservoir
   
   
  Link Results:
  ----------------------------------------------
                       Flow  Velocity  Headloss
  Link                 m3/h       m/s    /1000m
  ----------------------------------------------
  TU1                 62.00      0.68      2.28
  TU10                57.00      0.62      1.91
  TU100              272.00      0.60      0.70
  TU101              358.00      0.51      0.39
  TU102               81.00      1.44     12.13
  TU103              439.00      0.62      0.57
  TU104              439.00      0.62      0.57
  TU105             1611.00      0.70      0.36
  TU106             1611.00      0.70      0.36
  TU107                0.00      0.00      0.00
  TU108             1611.00      0.70      0.36
  TU109             2050.00      0.90      0.56
  TU11               151.00      0.69      1.40
  TU110             2050.00      0.90      0.56
  TU111                0.00      0.00      0.00
  TU112               -0.00      0.00      0.00
  TU113                0.00      0.00      0.00
  TU114                0.00      0.00      0.00
  TU115             2135.00      0.76      0.36
  TU116             2135.00      0.76      0.36
  TU117               -0.00      0.00      0.00
  TU118                0.00      0.00      0.00
  TU119             2135.00      0.76      0.36
  TU12                 0.00      0.00      0.00
  TU120             2135.00      0.76      0.36
  TU121               -0.00      0.00      0.00
  TU122                0.00      0.00      0.00
  TU123               -0.00      0.00      0.00
  TU124                0.00      0.00      0.00
  TU125               83.00      0.61      1.47
  TU126               83.00      0.38      0.48
  TU127               83.00      0.38      0.47
  TU128                0.00      0.00      0.00
  TU129                0.00      0.00      0.00
  TU13                53.00      0.39      0.65
  TU130               62.00      0.27      0.25
  TU131               62.00      0.27      0.25
  TU132               76.00      0.33      0.36
  TU133              138.00      0.60      1.06
  TU134               -0.00      0.00      0.00
  TU135              138.00      0.31      0.21
  TU136              197.00      0.44      0.39
  TU137              280.00      0.40      0.25
  TU138              280.00      0.40      0.25
  TU139              280.00      0.28      0.10
  TU14               244.00      0.54      0.58
  TU140              280.00      0.28      0.10
  TU141                0.00      0.00      0.00
  TU142               99.00      0.27      0.18
  TU143              186.00      0.81      1.82
  TU144               -0.00      0.00      0.00
  TU145               62.00      0.43      0.76
  TU146               62.00      0.27      0.25
  TU147              248.00      0.67      0.97
  TU148               -0.00      0.00      0.00
  TU149               -0.00      0.00      0.00
  TU15                -0.00      0.00      0.00
  TU150               -0.00      0.00      0.00
  TU151              248.00      0.35      0.20
  TU152                0.00      0.00      0.00
  TU15301            327.00      0.46      0.34
  TU15302            248.00      0.35      0.20
  TU1074              79.00      1.04      5.56
  TU154              464.00      0.46      0.26
  TU155               68.00      1.14      7.69
  TU156              532.00      0.52      0.34
  TU157              631.00      0.62      0.46
  TU158                0.00      0.00      0.00
  TU159              631.00      0.62      0.46
  TU16              3680.00      0.66      0.19
  TU160               71.00      1.26      9.53
  TU161              702.00      0.69      0.56
  TU162              909.00      0.66      0.42
  TU163              846.00      0.61      0.37
  TU164              846.00      0.61      0.38
  TU166               -0.00      0.00      0.00
  TU167              132.00      1.74     14.25
  TU168              132.00      1.74     14.25
  TU169              132.00      1.11      4.81
  TU17                -0.00      0.00      0.00
  TU170              132.00      0.60      1.10
  TU171              714.00      0.52      0.27
  TU17201            115.00      1.51     11.06
  TU17202              0.00      0.00      0.00
  TU1011A            115.00      1.51     11.06
  TU173              115.00      0.84      2.65
  TU174               -0.00      0.00      0.00
  TU175              115.00      0.53      0.86
  TU176              457.00      0.45      0.26
  TU177              599.00      0.59      0.42
  TU178              457.00      0.45      0.26
  TU179              213.00      0.60      0.83
  TU18                 0.00      0.00      0.00
  TU180                0.00      0.00      0.00
  TU181                0.00      0.00      0.00
  TU182                0.00      0.00      0.00
  TU183                0.00      0.00      0.00
  TU184                0.00      0.00      0.00
  TU185              237.00      0.52      0.55
  TU186              138.00      0.37      0.33
  TU187              138.00      0.31      0.21
  TU188             1201.00      0.87      0.71
  TU189             1201.00      0.87      0.71
  TU19                 0.00      0.00      0.00
  TU190               73.00      0.96      4.81
  TU191               -0.00      0.00      0.00
  TU192                0.00      0.00      0.00
  TU193                0.00      0.00      0.00
  TU194               -0.00      0.00      0.00
  TU195                0.00      0.00      0.00
  TU196                0.00      0.00      0.00
  TU197               -0.00      0.00      0.00
  TU198                0.00      0.00      0.00
  TU199                0.00      0.00      0.00
  TU2                213.00      2.43     24.44
  TU20                 0.00      0.00      0.00
  TU200               -0.00      0.00      0.00
  TU201                0.00      0.00      0.00
  TU203                0.00      0.00      0.00
  TU204             1265.00      0.55      0.23
  TU205             1265.00      0.55      0.23
  TU21                73.00      0.61      1.64
  TU22              1201.00      0.66      0.37
  TU23              1201.00      0.66      0.37
  TU24              1201.00      0.66      0.37
  TU25              1265.00      0.70      0.41
  TU26               900.00      0.88      0.88
  TU27               900.00      0.88      0.88
  TU28               900.00      0.88      0.88
  TU29               900.00      0.88      0.88
  TU3                  0.00      0.00      0.00
  TU30                 0.00      0.00      0.00
  TU31                 0.00      0.00      0.00
  TU32                 0.00      0.00      0.00
  TU33                 0.00      0.00      0.00
  TU34                51.00      0.23      0.20
  TU35                -0.00      0.00      0.00
  TU36                 0.00      0.00      0.00
  TU37                51.00      0.14      0.06
  TU38               110.00      0.31      0.25
  TU39                -0.00      0.00      0.00
  TU4                248.00      0.35      0.20
  TU40                64.00      0.47      0.92
  TU41               174.00      0.38      0.31
  TU42                 0.00      0.00      0.00
  TU43               237.00      0.34      0.19
  TU44               237.00      0.34      0.19
  TU45               301.00      0.43      0.29
  TU46               301.00      0.43      0.29
  TU47                -0.00      0.00      0.00
  TU48               156.00      2.05     19.40
  TU49               156.00      1.31      6.53
  TU5                248.00      0.35      0.20
  TU50                46.00      0.95      6.17
  TU51               202.00      1.07      3.43
  TU52               202.00      0.67      1.09
  TU53               202.00      0.67      1.09
  TU54                 0.00      0.00      0.00
  TU55               202.00      0.67      1.09
  TU56                 0.00      0.00      0.00
  TU57               202.00      0.57      0.75
  TU58                72.00      1.28      9.78
  TU59               274.00      0.78      1.31
  TU6                237.00      0.34      0.19
  TU60                73.00      1.50     14.35
  TU61                 0.00      0.00      0.00
  TU62                73.00      0.39      0.54
  TU63                 0.00      0.00      0.00
  TU64                73.00      0.39      0.54
  TU65                70.00      1.44     13.28
  TU66               143.00      0.47      0.58
  TU67               207.00      0.59      0.78
  TU68               207.00      0.59      0.78
  TU69               481.00      0.68      0.68
  TU7                  0.00      0.00      0.00
  TU70               481.00      0.68      0.68
  TU71               481.00      0.68      0.68
  TU72               131.00      0.29      0.19
  TU73               264.00      0.58      0.67
  TU74               332.00      0.73      1.01
  TU75               332.00      0.73      1.01
  TU76               419.00      0.93      1.55
  TU77               419.00      0.93      1.55
  TU78                 0.00      0.00      0.00
  TU79                 0.00      0.00      0.00
  TU8                 94.00      1.01      4.73
  TU80                 0.00      0.00      0.00
  TU81                 0.00      0.00      0.00
  TU82                62.00      1.10      7.44
  TU83                62.00      0.82      3.58
  TU84                 0.00      0.00      0.00
  TU85                69.00      0.50      1.05
  TU86                69.00      0.32      0.34
  TU87                69.00      0.37      0.49
  TU88               131.00      0.29      0.19
  TU89                 0.00      0.00      0.00
  TU9                  0.00      0.00      0.00
  TU90                 0.00      0.00      0.00
  TU91                -0.00      0.00      0.00
  TU92                -0.00      0.00      0.00
  TU93                 0.00      0.00      0.00
  TU94               118.00      1.35      8.22
  TU95               118.00      0.33      0.28
  TU96                 0.00      0.00      0.00
  TU97                49.00      0.87      4.85
  TU98                49.00      0.56      1.66
  TU99               167.00      0.37      0.29
  TU4000              78.00      1.03      5.43
   
  Analysis ended Fri Dec  1 09:07:44 2023
