  Page 1                                    Fri Dec  1 09:05:03 2023

  ******************************************************************
  *                           E P A N E T                          *
  *                   Hydraulic and Water Quality                  *
  *                   Analysis for Pipe Networks                   *
  *                         Version 2.2                            *
  ******************************************************************
  
  Analysis begun Fri Dec  1 09:05:03 2023

   
  Node Results:
  ----------------------------------------------
                     Demand      Head  Pressure
  Node                 m3/h         m         m
  ----------------------------------------------
  3661                 0.00    428.73     50.59
  482                  0.00    428.58     82.58
  661                  0.00    428.47     98.47
  6610                 0.00    426.50      2.06
  6611                 0.00    424.93     89.93
  6612                 0.00    427.10     64.73
  6613                 0.00    425.14     70.14
  6615                 0.00    428.47     89.47
  6616                 0.00    428.47     67.47
  6617                 0.00    426.47     83.47
  6618                 0.00    428.51     80.51
  662                  0.00    428.19    100.19
  6620                 0.00    427.27    119.27
  6621                 0.00    427.99     99.99
  6622                 0.00    428.16     91.16
  6623                 0.00    428.32     77.32
  6624                 0.00    428.36     76.36
  6625                 0.00    428.09    116.09
  6626                 0.00    428.24    107.24
  6627                 0.00    428.47    107.47
  6628                 0.00    425.32     86.32
  6629                 0.00    427.60     87.60
  663                  0.00    427.74     86.74
  6630                 0.00    427.93      3.07
  6632                 0.00    428.08     88.08
  6633                 0.00    428.65     66.01
  6634                 0.00    428.70     57.70
  6635                 0.00    428.61     76.61
  6636                 0.00    428.61     72.61
  6637                 0.00    428.58     61.58
  6639                 0.00    426.90     66.90
  664                  0.00    427.33     79.33
  6640                 0.00    426.82     66.82
  6641                 0.00    426.96     68.28
  6642                 0.00    426.96     70.96
  6643                 0.00    427.38     75.38
  6644                 0.00    427.46     75.46
  6645                 0.00    427.50     77.50
  6646                 0.00    426.27     79.25
  6648                 0.00    426.41     80.40
  6649                 0.00    426.61     87.61
  665                  0.00    427.12     82.12
  666                  0.00    427.93     87.93
  6665                 0.00    428.32     63.18
  6666                 0.00    428.51     60.85
  667                  0.00    427.45     75.45
  668                  0.00    428.47     98.47
  669                  0.00    427.34     82.34
  1                   76.00    428.42     98.42
  10                   0.00    427.38     75.38
  100                  0.00    426.96     71.96
  100B                 0.00    426.82     68.82
  101                  0.00    425.14     72.14
  103                  0.00    426.06     87.06
  104                  0.00    426.06     87.06
  105                 83.00    425.12     70.12
  106                 59.00    425.06     70.06
  107                  0.00    428.47     89.47
  108                 58.00    427.64     92.08
  109                  0.00    428.28     91.28
  11B                 61.00    427.03     84.03
  110                  0.00    428.48     82.48
  111                  0.00    428.34     90.36
  112                  0.00    428.41     86.41
  113                  0.00    428.14    105.14
  114                  0.00    427.58     79.58
  115                 57.00    426.93     80.93
  116                  0.00    427.35     82.35
  117                  0.00    426.47     83.47
  118                 81.00    422.55     83.55
  119                 77.00    413.42     90.61
  12                   0.00    426.62     96.28
  121                 41.00    427.83     77.83
  122                  0.00    427.35     80.35
  123                  0.00    427.35     81.35
  125                  0.00    427.81     76.81
  126                 58.00    427.72     79.72
  127                  0.00    427.72     84.39
  128                  0.00    428.47     66.47
  129                  0.00    428.47     72.47
  130                  0.00    428.47     87.39
  130B                 0.00    428.47     75.47
  132                  0.00    428.47     95.47
  134                  0.00    428.47    107.47
  135                  0.00    428.47    112.47
  137                  0.00    428.47    119.47
  139                  0.00    428.47     68.47
  14                  50.00    426.06     88.06
  140                  0.00    428.47     77.47
  141                  0.00    428.47     76.47
  142                  0.00    428.47     67.47
  143                  0.00    428.47     87.50
  144                  0.00    428.47     69.47
  146                  0.00    428.30     82.30
  147                  0.00    428.24    107.24
  148                  0.00    428.29     95.29
  149                  0.00    428.09    114.88
  15                   0.00    424.93     89.93
  150                 86.00    427.91    119.84
  151                  0.00    427.91    122.67
  152                  0.00    427.91    117.89
  153                  0.00    427.91    117.91
  154                  0.00    427.92    102.92
  157                  0.00    427.27    124.27
  158A                69.00    417.03     96.03
  158B                69.00    417.01     96.01
  16B                  0.00    426.09     92.09
  160                 67.00    428.56     61.56
  162                  0.00    428.54     60.54
  163                  0.00    428.51     54.51
  164                  0.00    428.44     68.78
  165                 66.00    428.32     67.02
  166                  0.00    428.32     67.31
  167                  0.00    428.32     57.68
  169                 53.00    428.32     61.82
  17A                258.00    424.13     89.13
  170                  0.00    428.60     69.60
  17B                  0.00    423.93     88.93
  171                  0.00    428.61     76.61
  172                  0.00    428.61     88.61
  18B                226.00    417.85     92.85
  19                   0.00    428.65     70.65
  2                    0.00    428.24    102.24
  20                   0.00    428.73     64.73
  2002                 0.00    427.34     77.34
  2003                 0.00    427.34     77.34
  21                   0.00    428.71     65.98
  22                   0.00    428.71     67.11
  222                  0.00    428.66     78.66
  24                   0.00    428.63     84.63
  25                   0.00    428.60     83.60
  26                   0.00    428.51     80.51
  27                   0.00    428.56     78.56
  28                   0.00    428.54     80.54
  29                  55.00    428.48     72.48
  3                    0.00    427.99     87.64
  30                   0.00    428.47     67.47
  3002                 0.00    428.73     42.73
  3004                 0.00    428.73     42.73
  3005                 0.00    428.73     42.73
  3008                 0.00    428.73     43.73
  3012                 0.00    428.73     58.00
  3013                 0.00    428.73     63.80
  3016                 0.00    428.75     63.75
  3017               146.00    428.80     46.80
  3018                71.00    428.38     51.38
  3019                 0.00    428.73     59.34
  3020                 0.00    428.73     60.62
  3024                 0.00    428.73     63.79
  31                   0.00    428.40     70.61
  3152                 0.00    428.73     62.53
  32                   0.00    428.43     70.43
  34                   0.00    428.32     77.30
  35                   0.00    428.16     91.16
  36                   0.00    427.99     99.99
  39                   0.00    427.68    114.68
  41                   0.00    427.04    120.04
  46                 190.00    428.63     52.63
  47                   0.00    428.40     70.22
  48                   0.00    428.58     84.58
  49                   0.00    428.58     76.58
  5                    0.00    427.86     80.86
  52                   0.00    428.58     77.58
  53                  65.00    427.96     71.96
  54                   0.00    428.57     83.57
  55                   0.00    428.37     98.37
  56                  55.00    428.34     94.34
  58                   0.00    428.34     95.34
  59                   0.00    428.34     99.34
  6                    0.00    427.46     75.46
  60                   0.00    425.53     80.53
  61                  82.00    424.35     85.35
  62                 107.00    423.13     69.13
  64                   0.00    428.14     97.14
  65                   0.00    428.08     88.08
  66                   0.00    428.08     89.08
  67                   0.00    427.99     95.99
  68                   0.00    427.93     88.93
  69                   0.00    427.93     76.93
  7                    0.00    427.50     74.50
  70                 165.00    426.34     86.34
  71                   0.00    427.60     90.60
  72                   0.00    427.37     71.37
  73                   0.00    427.37     72.37
  77                   0.00    427.37     71.37
  78                   0.00    427.37     87.23
  79                  59.00    427.50     74.50
  8                   68.00    427.24     77.24
  80                  90.00    427.24     78.24
  81                   0.00    426.41     67.41
  82                  90.00    425.87     67.87
  85                  52.00    425.11     86.11
  86                   0.00    425.32     88.32
  87                 102.00    427.16     67.16
  88                   0.00    427.10     74.10
  89                  83.00    426.98     59.98
  90                   0.00    426.96     70.96
  91                   0.00    426.90     54.90
  92                   0.00    426.50     66.50
  91B                116.00    426.35     66.35
  94                  40.00    426.42     87.42
  95                   0.00    425.88     82.88
  97                   0.00    425.39     94.39
  99                 151.00    424.14     74.14
  74                   0.00    427.35     68.64
  1074                 0.00    427.35     69.35
  11A                142.00    425.16     82.16
  1011                 0.00    425.39     82.39
  0                -3524.00    429.00      0.00  Reservoir
   
   
  Link Results:
  ----------------------------------------------
                       Flow  Velocity  Headloss
  Link                 m3/h       m/s    /1000m
  ----------------------------------------------
  TU1                 -0.00      0.00      0.00
  TU10                83.00      0.90      3.77
  TU100              217.00      0.48      0.47
  TU101              217.00      0.31      0.16
  TU102                0.00      0.00      0.00
  TU103              217.00      0.31      0.16
  TU104              217.00      0.31      0.16
  TU105             1785.00      0.78      0.43
  TU106             1785.00      0.78      0.43
  TU107                0.00      0.00      0.00
  TU108             1867.00      0.82      0.47
  TU109             2084.00      0.91      0.58
  TU11               142.00      0.65      1.25
  TU110             2084.00      0.91      0.58
  TU111                0.00      0.00      0.00
  TU112               -0.00      0.00      0.00
  TU113               55.00      0.29      0.32
  TU114               55.00      0.29      0.32
  TU115             2215.00      0.78      0.39
  TU116             2215.00      0.78      0.39
  TU117               65.00      0.70      2.42
  TU118                0.00      0.00      0.00
  TU119             2215.00      0.78      0.39
  TU12                 0.00      0.00      0.00
  TU120             2280.00      0.81      0.41
  TU121                0.00      0.00      0.00
  TU122                0.00      0.00      0.00
  TU123               -0.00      0.00      0.00
  TU124                0.00      0.00      0.00
  TU125               -0.00      0.00      0.00
  TU126               -0.00      0.00      0.00
  TU127               -0.00      0.00      0.00
  TU128                0.00      0.00      0.00
  TU129                0.00      0.00      0.00
  TU13                 0.00      0.00      0.00
  TU130               66.00      0.29      0.28
  TU131               66.00      0.29      0.28
  TU132               53.00      0.23      0.19
  TU133              119.00      0.52      0.81
  TU134              116.00      1.25      6.95
  TU135              119.00      0.26      0.16
  TU136              186.00      0.41      0.35
  TU137              186.00      0.26      0.12
  TU138              186.00      0.26      0.12
  TU139              186.00      0.18      0.05
  TU14               192.00      0.42      0.37
  TU140              447.00      0.44      0.25
  TU141              107.00      1.80     17.66
  TU142              107.00      0.29      0.21
  TU143               -0.00      0.00      0.00
  TU144               -0.00      0.00      0.00
  TU145              116.00      0.80      2.37
  TU146              116.00      0.51      0.77
  TU147              116.00      0.31      0.24
  TU148               -0.00      0.00      0.00
  TU149               -0.00      0.00      0.00
  TU15                -0.00      0.00      0.00
  TU150               -0.00      0.00      0.00
  TU151              116.00      0.16      0.05
  TU152              151.00      1.72     12.93
  TU15301            452.00      0.64      0.60
  TU15302            452.00      0.64      0.60
  TU1074               0.00      0.00      0.00
  TU154              452.00      0.44      0.25
  TU155                0.00      0.00      0.00
  TU156              452.00      0.44      0.25
  TU157              559.00      0.55      0.37
  TU158                0.00      0.00      0.00
  TU159              559.00      0.55      0.37
  TU16              3524.00      0.64      0.18
  TU160               68.00      1.21      8.81
  TU161              627.00      0.62      0.45
  TU162             1158.00      0.84      0.66
  TU163             1099.00      0.79      0.60
  TU164             1158.00      0.84      0.66
  TU166               -0.00      0.00      0.00
  TU167               90.00      1.18      7.05
  TU168               90.00      1.18      7.05
  TU169               90.00      0.76      2.39
  TU17                58.00      1.03      6.59
  TU170              180.00      0.82      1.93
  TU171              919.00      0.66      0.43
  TU17201            142.00      1.87     16.30
  TU17202              0.00      0.00      0.00
  TU1011A            142.00      1.87     16.30
  TU173              142.00      1.04      3.90
  TU174               40.00      0.71      3.36
  TU175              182.00      0.83      1.97
  TU176              676.00      0.66      0.52
  TU177              737.00      0.72      0.61
  TU178              676.00      0.66      0.52
  TU179              484.00      1.37      3.72
  TU18                58.00      0.66      2.25
  TU180              484.00      1.37      3.72
  TU181              226.00      1.90     12.92
  TU182              226.00      1.03      2.93
  TU183               82.00      0.94      4.23
  TU184                0.00      0.00      0.00
  TU185              314.00      0.69      0.92
  TU186              119.00      0.32      0.26
  TU187              119.00      0.26      0.16
  TU188              593.00      0.43      0.19
  TU189              593.00      0.43      0.19
  TU19                 0.00      0.00      0.00
  TU190               -0.00      0.00      0.00
  TU191               82.00      1.46     12.41
  TU192                0.00      0.00      0.00
  TU193                0.00      0.00      0.00
  TU194               -0.00      0.00      0.00
  TU195                0.00      0.00      0.00
  TU196                0.00      0.00      0.00
  TU197               -0.00      0.00      0.00
  TU198                0.00      0.00      0.00
  TU199                0.00      0.00      0.00
  TU2                  0.00      0.00      0.00
  TU20                58.00      0.42      0.77
  TU200               -0.00      0.00      0.00
  TU201                0.00      0.00      0.00
  TU203               71.00      1.19      8.32
  TU204              651.00      0.28      0.07
  TU205              651.00      0.28      0.07
  TU21                -0.00      0.00      0.00
  TU22               651.00      0.36      0.12
  TU23               651.00      0.36      0.12
  TU24               651.00      0.36      0.12
  TU25               651.00      0.36      0.12
  TU26               224.00      0.22      0.07
  TU27               224.00      0.22      0.07
  TU28               279.00      0.27      0.10
  TU29               279.00      0.27      0.10
  TU3                  0.00      0.00      0.00
  TU30                77.00      1.59     15.82
  TU31               158.00      1.80     14.06
  TU32                 0.00      0.00      0.00
  TU33               158.00      0.72      1.52
  TU34               215.00      0.98      2.67
  TU35                 0.00      0.00      0.00
  TU36                 0.00      0.00      0.00
  TU37               215.00      0.61      0.84
  TU38               215.00      0.61      0.84
  TU39                -0.00      0.00      0.00
  TU4                350.00      0.50      0.38
  TU40                58.00      0.42      0.77
  TU41               273.00      0.60      0.71
  TU42                 0.00      0.00      0.00
  TU43               314.00      0.44      0.31
  TU44               314.00      0.44      0.31
  TU45               314.00      0.44      0.31
  TU46               314.00      0.44      0.31
  TU47                -0.00      0.00      0.00
  TU48               138.00      1.81     15.47
  TU49               138.00      1.16      5.21
  TU5                350.00      0.50      0.38
  TU50                 0.00      0.00      0.00
  TU51               138.00      0.73      1.71
  TU52               138.00      0.46      0.54
  TU53               138.00      0.46      0.54
  TU54                 0.00      0.00      0.00
  TU55               138.00      0.46      0.54
  TU56                 0.00      0.00      0.00
  TU57               138.00      0.39      0.38
  TU58                 0.00      0.00      0.00
  TU59               138.00      0.39      0.38
  TU6                314.00      0.44      0.31
  TU60                -0.00      0.00      0.00
  TU61                 0.00      0.00      0.00
  TU62                86.00      0.46      0.73
  TU63                 0.00      0.00      0.00
  TU64                86.00      0.46      0.73
  TU65                 0.00      0.00      0.00
  TU66                86.00      0.28      0.23
  TU67                86.00      0.24      0.16
  TU68                86.00      0.24      0.16
  TU69               224.00      0.32      0.17
  TU7                  0.00      0.00      0.00
  TU70               224.00      0.32      0.17
  TU71               224.00      0.32      0.17
  TU72                 0.00      0.00      0.00
  TU73                 0.00      0.00      0.00
  TU74                 0.00      0.00      0.00
  TU75                 0.00      0.00      0.00
  TU76                 0.00      0.00      0.00
  TU77                 0.00      0.00      0.00
  TU78                 0.00      0.00      0.00
  TU79                 0.00      0.00      0.00
  TU8                  0.00      0.00      0.00
  TU80                 0.00      0.00      0.00
  TU81                 0.00      0.00      0.00
  TU82                 0.00      0.00      0.00
  TU83                 0.00      0.00      0.00
  TU84                 0.00      0.00      0.00
  TU85                 0.00      0.00      0.00
  TU86                 0.00      0.00      0.00
  TU87                 0.00      0.00      0.00
  TU88                 0.00      0.00      0.00
  TU89                52.00      0.93      5.40
  TU9                 59.00      0.99      5.94
  TU90                 0.00      0.00      0.00
  TU91                52.00      0.59      1.85
  TU92               217.00      0.99      2.72
  TU93               217.00      0.62      0.85
  TU94                 0.00      0.00      0.00
  TU95               217.00      0.62      0.85
  TU96                 0.00      0.00      0.00
  TU97                 0.00      0.00      0.00
  TU98                 0.00      0.00      0.00
  TU99               217.00      0.48      0.47
  TU4000              69.00      0.91      4.35
   
  Analysis ended Fri Dec  1 09:05:03 2023
