  Page 1                                    Fri Dec  1 08:49:37 2023

  ******************************************************************
  *                           E P A N E T                          *
  *                   Hydraulic and Water Quality                  *
  *                   Analysis for Pipe Networks                   *
  *                         Version 2.2                            *
  ******************************************************************
  
  Analysis begun Fri Dec  1 08:49:37 2023

   
  Node Results:
  ----------------------------------------------
                     Demand      Head  Pressure
  Node                 m3/h         m         m
  ----------------------------------------------
  3661                 0.00    428.92     50.78
  482                  0.00    428.71     82.71
  661                  0.00    428.76     98.76
  6610                 0.00    426.09     -1.50
  6611                 0.00    428.56     93.56
  6612                 0.00    428.11     65.74
  6613                 0.00    427.91     72.91
  6615                 0.00    428.88     89.88
  6616                 0.00    428.76     67.76
  6617                 0.00    428.84     85.84
  6618                 0.00    428.84     80.84
  662                  0.00    428.75    100.75
  6620                 0.00    427.55    119.55
  6621                 0.00    428.29    100.29
  6622                 0.00    428.46     91.46
  6623                 0.00    428.63     77.63
  6624                 0.00    428.66     76.66
  6625                 0.00    428.63    116.63
  6626                 0.00    428.63    107.63
  6627                 0.00    428.76    107.76
  6628                 0.00    428.47     89.47
  6629                 0.00    428.47     88.47
  663                  0.00    428.64     87.64
  6630                 0.00    428.14      3.28
  6632                 0.00    428.58     88.58
  6633                 0.00    428.91     66.27
  6634                 0.00    428.92     57.92
  6635                 0.00    428.94     76.94
  6636                 0.00    428.94     72.94
  6637                 0.00    428.93     61.93
  6639                 0.00    427.73     67.73
  664                  0.00    428.62     80.62
  6640                 0.00    427.41     67.41
  6641                 0.00    427.98     69.30
  6642                 0.00    427.98     71.98
  6643                 0.00    428.23     76.23
  6644                 0.00    428.33     76.33
  6645                 0.00    428.37     78.37
  6646                 0.00    428.62     81.60
  6648                 0.00    428.62     82.61
  6649                 0.00    428.43     89.43
  665                  0.00    428.60     83.60
  666                  0.00    428.51     88.51
  6665                 0.00    428.93     63.79
  6666                 0.00    428.93     61.27
  667                  0.00    428.32     76.32
  668                  0.00    428.76     98.76
  669                  0.00    428.47     83.47
  1                    0.00    428.83     98.83
  10                   0.00    428.23     76.23
  100                  0.00    427.98     72.98
  100B                 0.00    427.41     69.41
  101                116.00    427.52     74.52
  103                  0.00    428.55     89.55
  104                  0.00    428.55     89.55
  105                  0.00    427.91     72.91
  106                  0.00    427.91     72.91
  107                  0.00    428.88     89.88
  108                  0.00    428.88     93.32
  109                  0.00    428.88     91.88
  11B                  0.00    428.60     85.60
  110                 69.00    428.84     82.84
  111                  0.00    428.84     90.86
  112                  0.00    428.84     86.84
  113                  0.00    428.84    105.84
  114                  0.00    428.84     80.84
  115                  0.00    428.84     82.84
  116                  0.00    428.84     83.84
  117                  0.00    428.84     85.84
  118                  0.00    428.84     89.84
  119                  0.00    428.84    106.03
  12                   0.00    428.58     98.24
  121                  0.00    428.84     78.84
  122                  0.00    428.84     81.84
  123                  0.00    428.84     82.84
  125                  0.00    428.84     77.84
  126                  0.00    428.84     80.84
  127                  0.00    428.84     85.51
  128                  0.00    428.76     66.76
  129                  0.00    428.76     72.76
  130                  0.00    428.76     87.68
  130B                 0.00    428.76     75.76
  132                  0.00    428.76     95.76
  134                  0.00    428.76    107.76
  135                  0.00    428.76    112.76
  137                  0.00    428.76    119.76
  139                  0.00    428.76     68.76
  14                   0.00    428.55     90.55
  140                  0.00    428.76     77.76
  141                  0.00    428.76     76.76
  142                  0.00    428.76     67.76
  143                  0.00    428.76     87.79
  144                  0.00    428.76     69.76
  146                 66.00    428.63     82.63
  147                  0.00    428.63    107.63
  148                  0.00    428.63     95.63
  149                  0.00    428.63    115.42
  15                   0.00    428.56     93.56
  150                  0.00    428.63    120.56
  151                  0.00    428.63    123.39
  152                  0.00    428.63    118.61
  153                  0.00    428.63    118.63
  154                  0.00    428.21    103.21
  157                  0.00    427.55    124.55
  158A                70.00    417.03     96.03
  158B                70.00    417.01     96.01
  16B                  0.00    428.56     94.56
  160                  0.00    428.93     61.93
  162                  0.00    428.93     60.93
  163                  0.00    428.93     54.93
  164                  0.00    428.93     69.27
  165                  0.00    428.93     67.63
  166                  0.00    428.93     67.92
  167                  0.00    428.93     58.29
  169                  0.00    428.93     62.43
  17A                  0.00    428.56     93.56
  170                  0.00    428.94     69.94
  17B                  0.00    428.56     93.56
  171                  0.00    428.94     76.94
  172                  0.00    428.94     88.94
  18B                  0.00    428.56    103.56
  19                   0.00    428.91     70.91
  2                    0.00    428.77    102.77
  20                   0.00    428.92     64.92
  2002                 0.00    428.47     78.47
  2003                 0.00    428.47     78.47
  21                   0.00    428.92     66.19
  22                   0.00    428.91     67.31
  222                  0.00    428.90     78.90
  24                   0.00    428.88     84.88
  25                   0.00    428.87     83.87
  26                   0.00    428.84     80.84
  27                   0.00    428.85     78.85
  28                  55.00    428.82     80.82
  29                  64.00    428.77     72.77
  3                    0.00    428.71     88.36
  30                   0.00    428.76     67.76
  3002                 0.00    428.92     42.92
  3004                 0.00    428.92     42.92
  3005                 0.00    428.92     42.92
  3008                 0.00    428.92     43.92
  3012                 0.00    428.92     58.19
  3013                 0.00    428.92     63.99
  3016                 0.00    428.93     63.93
  3017                 0.00    428.95     46.95
  3018                 0.00    428.94     51.94
  3019                 0.00    428.92     59.53
  3020                 0.00    428.92     60.81
  3024                 0.00    428.92     63.98
  31                   0.00    428.70     70.91
  3152                 0.00    428.92     62.72
  32                   0.00    428.72     70.72
  34                   0.00    428.63     77.61
  35                   0.00    428.46     91.46
  36                   0.00    428.29    100.29
  39                   0.00    427.97    114.97
  41                   0.00    427.31    120.31
  46                   0.00    428.94     52.94
  47                   0.00    428.93     70.75
  48                   0.00    428.62     84.62
  49                   0.00    427.91     75.91
  5                    0.00    428.67     81.67
  52                  74.00    427.89     76.89
  53                   0.00    428.92     72.92
  54                   0.00    428.88     83.88
  55                   0.00    428.83     98.83
  56                   0.00    428.83     94.83
  58                   0.00    428.83     95.83
  59                   0.00    428.83     99.83
  6                   56.00    428.14     76.14
  60                   0.00    428.71     83.71
  61                   0.00    428.71     89.71
  62                   0.00    428.26     74.26
  64                   0.00    428.68     97.68
  65                  85.00    428.22     88.22
  66                  82.00    428.57     89.57
  67                   0.00    428.54     96.54
  68                   0.00    428.14     89.14
  69                  57.00    427.40     76.40
  7                    0.00    428.63     75.63
  70                   0.00    428.47     88.47
  71                  73.00    427.14     90.14
  72                  90.00    428.26     72.26
  73                 185.00    428.21     73.21
  77                   0.00    428.26     72.26
  78                   0.00    428.26     88.12
  79                   0.00    428.63     75.63
  8                    0.00    428.37     78.37
  80                   0.00    428.62     79.62
  81                   0.00    428.62     69.62
  82                   0.00    428.62     70.62
  85                   0.00    428.47     89.47
  86                   0.00    428.47     91.47
  87                   0.00    428.14     68.14
  88                   0.00    428.11     75.11
  89                   0.00    428.04     61.04
  90                   0.00    427.98     71.98
  91                   0.00    427.73     55.73
  92                  52.00    426.06     66.06
  91B                198.00    425.69     65.69
  94                   0.00    428.43     89.43
  95                   0.00    428.06     85.06
  97                   0.00    427.80     96.80
  99                   0.00    428.04     78.04
  74                  75.00    426.10     67.39
  1074                 0.00    428.20     70.20
  11A                 99.00    427.69     84.69
  1011                 0.00    427.80     84.80
  0                -1636.00    429.00      0.00  Reservoir
   
   
  Link Results:
  ----------------------------------------------
                       Flow  Velocity  Headloss
  Link                 m3/h       m/s    /1000m
  ----------------------------------------------
  TU1                 52.00      0.57      1.66
  TU10                 0.00      0.00      0.00
  TU100              130.00      0.29      0.19
  TU101              212.00      0.30      0.15
  TU102               85.00      1.51     13.25
  TU103              297.00      0.42      0.28
  TU104              297.00      0.42      0.28
  TU105              871.00      0.38      0.12
  TU106              871.00      0.38      0.12
  TU107                0.00      0.00      0.00
  TU108              871.00      0.38      0.12
  TU109             1168.00      0.51      0.20
  TU11               116.00      0.53      0.87
  TU110             1168.00      0.51      0.20
  TU111                0.00      0.00      0.00
  TU112               -0.00      0.00      0.00
  TU113                0.00      0.00      0.00
  TU114                0.00      0.00      0.00
  TU115             1168.00      0.41      0.12
  TU116             1168.00      0.41      0.12
  TU117               -0.00      0.00      0.00
  TU118                0.00      0.00      0.00
  TU119             1168.00      0.41      0.12
  TU12                 0.00      0.00      0.00
  TU120             1168.00      0.41      0.12
  TU121                0.00      0.00      0.00
  TU122                0.00      0.00      0.00
  TU123               -0.00      0.00      0.00
  TU124               74.00      0.84      3.50
  TU125               74.00      0.54      1.19
  TU126               74.00      0.34      0.39
  TU127               74.00      0.34      0.39
  TU128                0.00      0.00      0.00
  TU129                0.00      0.00      0.00
  TU13                 0.00      0.00      0.00
  TU130               -0.00      0.00      0.00
  TU131               -0.00      0.00      0.00
  TU132                0.00      0.00      0.00
  TU133               -0.00      0.00      0.00
  TU134              198.00      2.14     18.61
  TU135               -0.00      0.00      0.00
  TU136                0.00      0.00      0.00
  TU137               74.00      0.10      0.02
  TU138               74.00      0.10      0.02
  TU139               74.00      0.07      0.01
  TU14               116.00      0.26      0.15
  TU140               74.00      0.07      0.01
  TU141                0.00      0.00      0.00
  TU142               90.00      0.24      0.15
  TU143               -0.00      0.00      0.00
  TU144               -0.00      0.00      0.00
  TU145              250.00      1.73      9.67
  TU146              250.00      1.09      3.12
  TU147              250.00      0.67      0.98
  TU148               -0.00      0.00      0.00
  TU149               -0.00      0.00      0.00
  TU15                -0.00      0.00      0.00
  TU150               -0.00      0.00      0.00
  TU151              250.00      0.35      0.21
  TU152               -0.00      0.00      0.00
  TU15301            325.00      0.46      0.33
  TU15302            250.00      0.35      0.21
  TU1074              75.00      0.99      5.06
  TU154              510.00      0.50      0.31
  TU155               -0.00      0.00      0.00
  TU156              510.00      0.50      0.31
  TU157              600.00      0.59      0.42
  TU158               56.00      1.00      6.18
  TU159              656.00      0.64      0.49
  TU16              1636.00      0.30      0.04
  TU160                0.00      0.00      0.00
  TU161              656.00      0.64      0.49
  TU162              215.00      0.16      0.03
  TU163              215.00      0.16      0.03
  TU164              215.00      0.16      0.03
  TU166               -0.00      0.00      0.00
  TU167               -0.00      0.00      0.00
  TU168                0.00      0.00      0.00
  TU169                0.00      0.00      0.00
  TU17                -0.00      0.00      0.00
  TU170                0.00      0.00      0.00
  TU171              215.00      0.16      0.03
  TU17201             99.00      1.30      8.40
  TU17202              0.00      0.00      0.00
  TU1011A             99.00      1.30      8.40
  TU173               99.00      0.72      2.02
  TU174               -0.00      0.00      0.00
  TU175               99.00      0.45      0.65
  TU176              116.00      0.11      0.02
  TU177              116.00      0.11      0.02
  TU178              116.00      0.11      0.02
  TU179                0.00      0.00      0.00
  TU18                 0.00      0.00      0.00
  TU180                0.00      0.00      0.00
  TU181                0.00      0.00      0.00
  TU182                0.00      0.00      0.00
  TU183                0.00      0.00      0.00
  TU184                0.00      0.00      0.00
  TU185               -0.00      0.00      0.00
  TU186               -0.00      0.00      0.00
  TU187               -0.00      0.00      0.00
  TU188              394.00      0.28      0.09
  TU189              394.00      0.28      0.09
  TU19                 0.00      0.00      0.00
  TU190               -0.00      0.00      0.00
  TU191               -0.00      0.00      0.00
  TU192                0.00      0.00      0.00
  TU193                0.00      0.00      0.00
  TU194               -0.00      0.00      0.00
  TU195                0.00      0.00      0.00
  TU196                0.00      0.00      0.00
  TU197               -0.00      0.00      0.00
  TU198                0.00      0.00      0.00
  TU199                0.00      0.00      0.00
  TU2                  0.00      0.00      0.00
  TU20                 0.00      0.00      0.00
  TU200               -0.00      0.00      0.00
  TU201                0.00      0.00      0.00
  TU203                0.00      0.00      0.00
  TU204              394.00      0.17      0.03
  TU205              394.00      0.17      0.03
  TU21                -0.00      0.00      0.00
  TU22               394.00      0.22      0.05
  TU23               394.00      0.22      0.05
  TU24               394.00      0.22      0.05
  TU25               394.00      0.22      0.05
  TU26               206.00      0.20      0.06
  TU27               206.00      0.20      0.06
  TU28               270.00      0.27      0.10
  TU29               325.00      0.32      0.14
  TU3                  0.00      0.00      0.00
  TU30                 0.00      0.00      0.00
  TU31                -0.00      0.00      0.00
  TU32                 0.00      0.00      0.00
  TU33                 0.00      0.00      0.00
  TU34                 0.00      0.00      0.00
  TU35                -0.00      0.00      0.00
  TU36                 0.00      0.00      0.00
  TU37                -0.00      0.00      0.00
  TU38                 0.00      0.00      0.00
  TU39                -0.00      0.00      0.00
  TU4                250.00      0.35      0.21
  TU40                -0.00      0.00      0.00
  TU41                -0.00      0.00      0.00
  TU42                 0.00      0.00      0.00
  TU43                -0.00      0.00      0.00
  TU44                -0.00      0.00      0.00
  TU45                69.00      0.10      0.02
  TU46                69.00      0.10      0.02
  TU47                -0.00      0.00      0.00
  TU48               140.00      1.84     15.88
  TU49               140.00      1.18      5.35
  TU5                250.00      0.35      0.21
  TU50                 0.00      0.00      0.00
  TU51               140.00      0.74      1.75
  TU52               140.00      0.46      0.56
  TU53               140.00      0.46      0.56
  TU54                 0.00      0.00      0.00
  TU55               140.00      0.46      0.56
  TU56                 0.00      0.00      0.00
  TU57               140.00      0.40      0.39
  TU58                 0.00      0.00      0.00
  TU59               140.00      0.40      0.39
  TU6                 -0.00      0.00      0.00
  TU60                -0.00      0.00      0.00
  TU61                 0.00      0.00      0.00
  TU62                -0.00      0.00      0.00
  TU63                 0.00      0.00      0.00
  TU64                 0.00      0.00      0.00
  TU65                 0.00      0.00      0.00
  TU66                 0.00      0.00      0.00
  TU67                 0.00      0.00      0.00
  TU68                66.00      0.19      0.10
  TU69               206.00      0.29      0.14
  TU7                  0.00      0.00      0.00
  TU70               206.00      0.29      0.15
  TU71               206.00      0.29      0.15
  TU72                 0.00      0.00      0.00
  TU73                 0.00      0.00      0.00
  TU74                 0.00      0.00      0.00
  TU75                 0.00      0.00      0.00
  TU76                 0.00      0.00      0.00
  TU77                 0.00      0.00      0.00
  TU78                 0.00      0.00      0.00
  TU79                 0.00      0.00      0.00
  TU8                116.00      1.25      6.95
  TU80                 0.00      0.00      0.00
  TU81                 0.00      0.00      0.00
  TU82                 0.00      0.00      0.00
  TU83                 0.00      0.00      0.00
  TU84                 0.00      0.00      0.00
  TU85                 0.00      0.00      0.00
  TU86                 0.00      0.00      0.00
  TU87                 0.00      0.00      0.00
  TU88                 0.00      0.00      0.00
  TU89                 0.00      0.00      0.00
  TU9                  0.00      0.00      0.00
  TU90                 0.00      0.00      0.00
  TU91                -0.00      0.00      0.00
  TU92                -0.00      0.00      0.00
  TU93                 0.00      0.00      0.00
  TU94                73.00      0.83      3.42
  TU95                73.00      0.21      0.12
  TU96                 0.00      0.00      0.00
  TU97                57.00      1.01      6.38
  TU98                57.00      0.65      2.18
  TU99               130.00      0.29      0.18
  TU4000              70.00      0.92      4.46
   
  Analysis ended Fri Dec  1 08:49:37 2023
