  Page 1                                    Fri Dec  1 09:04:55 2023

  ******************************************************************
  *                           E P A N E T                          *
  *                   Hydraulic and Water Quality                  *
  *                   Analysis for Pipe Networks                   *
  *                         Version 2.2                            *
  ******************************************************************
  
  Analysis begun Fri Dec  1 09:04:55 2023

   
  Node Results:
  ----------------------------------------------
                     Demand      Head  Pressure
  Node                 m3/h         m         m
  ----------------------------------------------
  3661                 0.00    428.83     50.69
  482                  0.00    428.90     82.90
  661                  0.00    427.92     97.92
  6610                 0.00    428.35      3.91
  6611                 0.00    428.00     93.00
  6612                 0.00    428.38     66.01
  6613                 0.00    427.48     72.48
  6615                 0.00    428.71     89.71
  6616                 0.00    428.27     67.27
  6617                 0.00    427.96     84.96
  6618                 0.00    428.57     80.57
  662                  0.00    428.75    100.75
  6620                 0.00    428.12    120.12
  6621                 0.00    428.12    100.12
  6622                 0.00    428.12     91.12
  6623                 0.00    428.12     77.12
  6624                 0.00    428.13     76.13
  6625                 0.00    427.15    115.15
  6626                 0.00    427.70    106.70
  6627                 0.00    427.92    106.92
  6628                 0.00    427.33     88.33
  6629                 0.00    428.69     88.69
  663                  0.00    428.62     87.62
  6630                 0.00    428.72      3.86
  6632                 0.00    428.73     88.73
  6633                 0.00    428.88     66.24
  6634                 0.00    428.89     57.89
  6635                 0.00    428.91     76.91
  6636                 0.00    428.91     72.91
  6637                 0.00    428.90     61.90
  6639                 0.00    428.35     68.35
  664                  0.00    428.49     80.49
  6640                 0.00    428.35     68.35
  6641                 0.00    428.35     69.67
  6642                 0.00    428.35     72.35
  6643                 0.00    428.48     76.48
  6644                 0.00    428.53     76.53
  6645                 0.00    428.54     78.54
  6646                 0.00    428.49     81.47
  6648                 0.00    428.49     82.48
  6649                 0.00    428.29     89.29
  665                  0.00    428.39     83.39
  666                  0.00    428.72     88.72
  6665                 0.00    428.66     63.52
  6666                 0.00    428.86     61.20
  667                  0.00    428.52     76.52
  668                  0.00    427.92     97.92
  669                  0.00    428.66     83.66
  1                    0.00    428.82     98.82
  10                  66.00    428.09     76.09
  100                  0.00    428.35     73.35
  100B                 0.00    428.35     70.35
  101                 98.00    427.19     74.19
  103                  0.00    425.62     86.62
  104                162.00    425.44     86.44
  105                  0.00    427.48     72.48
  106                  0.00    427.48     72.48
  107                  0.00    428.71     89.71
  108                  0.00    428.71     93.15
  109                  0.00    428.71     91.71
  11B                145.00    428.34     85.34
  110                  0.00    428.56     82.56
  111                  0.00    428.50     90.52
  112                  0.00    428.53     86.53
  113                  0.00    428.41    105.41
  114                 51.00    428.19     80.19
  115                  0.00    428.09     82.09
  116                  0.00    428.15     83.15
  117                  0.00    427.96     84.96
  118                  0.00    426.91     87.91
  119                 77.00    417.78     94.97
  12                   0.00    428.20     97.86
  121                  0.00    428.29     78.29
  122                  0.00    428.15     81.15
  123                  0.00    428.15     82.15
  125                  0.00    428.28     77.28
  126                 64.00    428.17     80.17
  127                  0.00    428.17     84.84
  128                  0.00    428.25     66.25
  129                  0.00    428.02     72.02
  130                160.00    427.92     86.84
  130B                64.00    427.96     74.96
  132                  0.00    427.92     94.92
  134                  0.00    427.92    106.92
  135                  0.00    427.92    111.92
  137                  0.00    427.92    118.92
  139                  0.00    427.92     67.92
  14                   0.00    427.95     89.95
  140                  0.00    427.92     76.92
  141                  0.00    427.92     75.92
  142                  0.00    427.92     66.92
  143                  0.00    427.92     86.95
  144                 86.00    428.12     69.12
  146                  0.00    427.92     81.92
  147                  0.00    427.70    106.70
  148                  0.00    427.89     94.89
  149                  0.00    427.15    113.94
  15                   0.00    428.00     93.00
  150                108.00    426.50    118.43
  151                  0.00    426.26    121.02
  152                 67.00    424.42    114.40
  153                  0.00    425.04    115.04
  154                  0.00    428.12    103.12
  157                  0.00    428.12    125.12
  158A                 0.00    428.12    107.12
  158B                 0.00    428.12    107.12
  16B                125.00    428.00     94.00
  160                  0.00    428.89     61.89
  162                  0.00    428.88     60.88
  163                  0.00    428.86     54.86
  164                  0.00    428.82     69.16
  165                  0.00    428.66     67.36
  166                 88.00    428.66     67.65
  167                  0.00    428.66     58.02
  169                  0.00    428.80     62.30
  17A                  0.00    428.00     93.00
  170                  0.00    428.90     69.90
  17B                  0.00    428.00     93.00
  171                  0.00    428.91     76.91
  172                  0.00    428.91     88.91
  18B                  0.00    428.00    103.00
  19                   0.00    428.88     70.88
  2                    0.00    428.76    102.76
  20                   0.00    428.83     64.83
  2002                 0.00    428.66     78.66
  2003                 0.00    428.66     78.66
  21                   0.00    428.81     66.08
  22                   0.00    428.80     67.20
  222                  0.00    428.74     78.74
  24                   0.00    428.71     84.71
  25                   0.00    428.65     83.65
  26                   0.00    428.57     80.57
  27                   0.00    428.59     78.59
  28                   0.00    428.51     80.51
  29                   0.00    428.31     72.31
  3                    0.00    428.69     88.34
  30                   0.00    428.28     67.28
  3002                 0.00    428.83     42.83
  3004                 0.00    428.83     42.83
  3005                 0.00    428.83     42.83
  3008                 0.00    428.83     43.83
  3012                 0.00    428.83     58.10
  3013                 0.00    428.83     63.90
  3016                 0.00    428.86     63.86
  3017               143.00    428.92     46.92
  3018                 0.00    428.91     51.91
  3019                 0.00    428.83     59.44
  3020                 0.00    428.83     60.72
  3024                 0.00    428.83     63.89
  31                   0.00    428.18     70.39
  3152                 0.00    428.83     62.63
  32                   0.00    428.22     70.22
  34                  75.00    427.93     76.91
  35                   0.00    428.12     91.12
  36                   0.00    428.12    100.12
  39                   0.00    428.12    115.12
  41                   0.00    428.12    121.12
  46                   0.00    428.91     52.91
  47                   0.00    428.80     70.62
  48                   0.00    428.90     84.90
  49                   0.00    428.90     76.90
  5                    0.00    428.65     81.65
  52                   0.00    428.90     77.90
  53                  48.00    428.46     72.46
  54                   0.00    428.86     83.86
  55                   0.00    428.76     98.76
  56                  56.00    428.74     94.74
  58                   0.00    428.74     95.74
  59                   0.00    428.74     99.74
  6                    0.00    428.53     76.53
  60                   0.00    428.69     83.69
  61                   0.00    428.69     89.69
  62                   0.00    428.52     74.52
  64                  42.00    428.74     97.74
  65                   0.00    428.73     88.73
  66                   0.00    428.73     89.73
  67                   0.00    428.73     96.73
  68                   0.00    428.72     89.72
  69                   0.00    428.72     77.72
  7                    0.00    428.55     75.55
  70                   0.00    428.57     88.57
  71                   0.00    428.69     91.69
  72                   0.00    428.52     72.52
  73                   0.00    428.47     73.47
  77                   0.00    428.52     72.52
  78                   0.00    428.52     88.38
  79                   0.00    428.54     75.54
  8                    0.00    428.54     78.54
  80                   0.00    428.49     79.49
  81                   0.00    428.49     69.49
  82                   0.00    428.49     70.49
  85                  58.00    427.07     88.07
  86                   0.00    427.33     90.33
  87                 118.00    428.39     68.39
  88                   0.00    428.38     75.38
  89                   0.00    428.35     61.35
  90                   0.00    428.35     72.35
  91                   0.00    428.35     56.35
  92                   0.00    428.35     68.35
  91B                  0.00    428.35     68.35
  94                  73.00    427.73     88.73
  95                   0.00    428.29     85.29
  97                   0.00    428.29     97.29
  99                 153.00    425.45     75.45
  74                   0.00    428.47     69.76
  1074                 0.00    428.47     70.47
  11A                  0.00    428.29     85.29
  1011                 0.00    428.29     85.29
  0                -2127.00    429.00      0.00  Reservoir
   
   
  Link Results:
  ----------------------------------------------
                       Flow  Velocity  Headloss
  Link                 m3/h       m/s    /1000m
  ----------------------------------------------
  TU1                 -0.00      0.00      0.00
  TU10                 0.00      0.00      0.00
  TU100               58.00      0.13      0.04
  TU101               58.00      0.08      0.02
  TU102               -0.00      0.00      0.00
  TU103               58.00      0.08      0.01
  TU104              100.00      0.14      0.04
  TU105              940.00      0.41      0.13
  TU106              940.00      0.41      0.13
  TU107                0.00      0.00      0.00
  TU108              940.00      0.41      0.13
  TU109             1040.00      0.45      0.16
  TU11                98.00      0.45      0.64
  TU110             1040.00      0.45      0.16
  TU111                0.00      0.00      0.00
  TU112               -0.00      0.00      0.00
  TU113               56.00      0.30      0.34
  TU114               56.00      0.30      0.34
  TU115             1096.00      0.39      0.11
  TU116             1096.00      0.39      0.11
  TU117               48.00      0.52      1.40
  TU118                0.00      0.00      0.00
  TU119             1096.00      0.39      0.11
  TU12               162.00      1.85     14.72
  TU120             1144.00      0.40      0.11
  TU121                0.00      0.00      0.00
  TU122                0.00      0.00      0.00
  TU123               -0.00      0.00      0.00
  TU124                0.00      0.00      0.00
  TU125               -0.00      0.00      0.00
  TU126               -0.00      0.00      0.00
  TU127               -0.00      0.00      0.00
  TU128                0.00      0.00      0.00
  TU129                0.00      0.00      0.00
  TU13               162.00      1.18      4.96
  TU130               -0.00      0.00      0.00
  TU131               88.00      0.38      0.47
  TU132                0.00      0.00      0.00
  TU133               88.00      0.38      0.47
  TU134               -0.00      0.00      0.00
  TU135               88.00      0.19      0.09
  TU136               88.00      0.19      0.09
  TU137               88.00      0.12      0.03
  TU138               88.00      0.12      0.03
  TU139               88.00      0.09      0.01
  TU14               260.00      0.57      0.65
  TU140               88.00      0.09      0.01
  TU141                0.00      0.00      0.00
  TU142                0.00      0.00      0.00
  TU143               -0.00      0.00      0.00
  TU144               -0.00      0.00      0.00
  TU145               -0.00      0.00      0.00
  TU146                0.00      0.00      0.00
  TU147               -0.00      0.00      0.00
  TU148               -0.00      0.00      0.00
  TU149               -0.00      0.00      0.00
  TU15                -0.00      0.00      0.00
  TU150               -0.00      0.00      0.00
  TU151               -0.00      0.00      0.00
  TU152              153.00      1.75     13.25
  TU15301            271.00      0.38      0.24
  TU15302            271.00      0.38      0.24
  TU1074               0.00      0.00      0.00
  TU154              271.00      0.27      0.10
  TU155               66.00      1.11      7.28
  TU156              337.00      0.33      0.15
  TU157              337.00      0.33      0.15
  TU158                0.00      0.00      0.00
  TU159              337.00      0.33      0.15
  TU16              2127.00      0.38      0.07
  TU160                0.00      0.00      0.00
  TU161              337.00      0.33      0.15
  TU162              603.00      0.44      0.20
  TU163              603.00      0.44      0.20
  TU164              603.00      0.44      0.20
  TU166               -0.00      0.00      0.00
  TU167               -0.00      0.00      0.00
  TU168                0.00      0.00      0.00
  TU169                0.00      0.00      0.00
  TU17                -0.00      0.00      0.00
  TU170                0.00      0.00      0.00
  TU171              603.00      0.44      0.20
  TU17201             -0.00      0.00      0.00
  TU17202              0.00      0.00      0.00
  TU1011A             -0.00      0.00      0.00
  TU173               -0.00      0.00      0.00
  TU174               73.00      1.30     10.03
  TU175               73.00      0.33      0.38
  TU176              385.00      0.38      0.19
  TU177              530.00      0.52      0.33
  TU178              385.00      0.38      0.19
  TU179                0.00      0.00      0.00
  TU18                 0.00      0.00      0.00
  TU180                0.00      0.00      0.00
  TU181                0.00      0.00      0.00
  TU182                0.00      0.00      0.00
  TU183                0.00      0.00      0.00
  TU184                0.00      0.00      0.00
  TU185              192.00      0.42      0.37
  TU186               88.00      0.24      0.15
  TU187               88.00      0.19      0.09
  TU188              752.00      0.54      0.30
  TU189              752.00      0.54      0.30
  TU19                -0.00      0.00      0.00
  TU190               67.00      0.88      4.12
  TU191               -0.00      0.00      0.00
  TU192                0.00      0.00      0.00
  TU193                0.00      0.00      0.00
  TU194               -0.00      0.00      0.00
  TU195                0.00      0.00      0.00
  TU196                0.00      0.00      0.00
  TU197               -0.00      0.00      0.00
  TU198                0.00      0.00      0.00
  TU199                0.00      0.00      0.00
  TU2                  0.00      0.00      0.00
  TU20                 0.00      0.00      0.00
  TU200               -0.00      0.00      0.00
  TU201                0.00      0.00      0.00
  TU203                0.00      0.00      0.00
  TU204              752.00      0.33      0.09
  TU205              752.00      0.33      0.09
  TU21                67.00      0.56      1.40
  TU22               752.00      0.42      0.16
  TU23               752.00      0.42      0.16
  TU24               752.00      0.42      0.16
  TU25               752.00      0.42      0.16
  TU26               560.00      0.55      0.37
  TU27               560.00      0.55      0.37
  TU28               560.00      0.55      0.37
  TU29               560.00      0.55      0.37
  TU3                  0.00      0.00      0.00
  TU30                77.00      1.59     15.82
  TU31                77.00      0.88      3.77
  TU32                 0.00      0.00      0.00
  TU33                77.00      0.35      0.41
  TU34                77.00      0.35      0.42
  TU35                 0.00      0.00      0.00
  TU36                 0.00      0.00      0.00
  TU37                77.00      0.22      0.13
  TU38               128.00      0.36      0.33
  TU39                -0.00      0.00      0.00
  TU4                153.00      0.22      0.08
  TU40                64.00      0.47      0.92
  TU41               192.00      0.42      0.37
  TU42                 0.00      0.00      0.00
  TU43               192.00      0.27      0.13
  TU44               192.00      0.27      0.13
  TU45               192.00      0.27      0.13
  TU46               192.00      0.27      0.13
  TU47                -0.00      0.00      0.00
  TU48                 0.00      0.00      0.00
  TU49                 0.00      0.00      0.00
  TU5                153.00      0.22      0.08
  TU50                 0.00      0.00      0.00
  TU51                 0.00      0.00      0.00
  TU52                 0.00      0.00      0.00
  TU53                 0.00      0.00      0.00
  TU54                 0.00      0.00      0.00
  TU55                 0.00      0.00      0.00
  TU56                 0.00      0.00      0.00
  TU57                 0.00      0.00      0.00
  TU58                75.00      1.33     10.54
  TU59                75.00      0.21      0.13
  TU6                192.00      0.27      0.13
  TU60                67.00      1.38     12.26
  TU61                 0.00      0.00      0.00
  TU62               175.00      0.93      2.64
  TU63                 0.00      0.00      0.00
  TU64               175.00      0.93      2.64
  TU65                 0.00      0.00      0.00
  TU66               175.00      0.58      0.84
  TU67               175.00      0.50      0.58
  TU68               175.00      0.50      0.58
  TU69               250.00      0.35      0.21
  TU7                  0.00      0.00      0.00
  TU70               250.00      0.35      0.21
  TU71               250.00      0.35      0.21
  TU72                 0.00      0.00      0.00
  TU73               160.00      0.35      0.27
  TU74               224.00      0.50      0.49
  TU75               224.00      0.50      0.49
  TU76               310.00      0.69      0.89
  TU77               310.00      0.69      0.89
  TU78                 0.00      0.00      0.00
  TU79                 0.00      0.00      0.00
  TU8                 98.00      1.06      5.11
  TU80                 0.00      0.00      0.00
  TU81                 0.00      0.00      0.00
  TU82                 0.00      0.00      0.00
  TU83                 0.00      0.00      0.00
  TU84                 0.00      0.00      0.00
  TU85                 0.00      0.00      0.00
  TU86                 0.00      0.00      0.00
  TU87                 0.00      0.00      0.00
  TU88                 0.00      0.00      0.00
  TU89                58.00      1.03      6.59
  TU9                  0.00      0.00      0.00
  TU90                 0.00      0.00      0.00
  TU91                58.00      0.66      2.25
  TU92                58.00      0.27      0.25
  TU93                58.00      0.16      0.08
  TU94                 0.00      0.00      0.00
  TU95                58.00      0.16      0.08
  TU96                 0.00      0.00      0.00
  TU97                 0.00      0.00      0.00
  TU98                 0.00      0.00      0.00
  TU99                58.00      0.13      0.04
  TU4000               0.00      0.00      0.00
   
  Analysis ended Fri Dec  1 09:04:56 2023
