  Page 1                                    Fri Dec  1 09:10:32 2023

  ******************************************************************
  *                           E P A N E T                          *
  *                   Hydraulic and Water Quality                  *
  *                   Analysis for Pipe Networks                   *
  *                         Version 2.2                            *
  ******************************************************************
  
  Analysis begun Fri Dec  1 09:10:32 2023

   
  Node Results:
  ----------------------------------------------
                     Demand      Head  Pressure
  Node                 m3/h         m         m
  ----------------------------------------------
  3661                 0.00    428.99     50.85
  482                  0.00    428.99     82.99
  661                  0.00    428.94     98.94
  6610                 0.00    428.02      1.33
  6611                 0.00    428.95     93.95
  6612                 0.00    428.81     66.44
  6613                 0.00    428.95     73.95
  6615                 0.00    428.97     89.97
  6616                 0.00    428.94     67.94
  6617                 0.00    428.95     85.95
  6618                 0.00    428.96     80.96
  662                  0.00    428.98    100.98
  6620                 0.00    428.92    120.92
  6621                 0.00    428.92    100.92
  6622                 0.00    428.92     91.92
  6623                 0.00    428.92     77.92
  6624                 0.00    428.92     76.92
  6625                 0.00    428.63    116.63
  6626                 0.00    428.79    107.79
  6627                 0.00    428.94    107.94
  6628                 0.00    428.98     89.98
  6629                 0.00    428.98     88.98
  663                  0.00    428.96     87.96
  6630                 0.00    428.98      4.12
  6632                 0.00    428.98     88.98
  6633                 0.00    428.99     66.35
  6634                 0.00    428.99     57.99
  6635                 0.00    428.99     76.99
  6636                 0.00    428.99     72.99
  6637                 0.00    428.99     61.99
  6639                 0.00    428.53     68.53
  664                  0.00    428.95     80.95
  6640                 0.00    428.28     68.28
  6641                 0.00    428.72     70.04
  6642                 0.00    428.72     72.72
  6643                 0.00    428.90     76.90
  6644                 0.00    428.92     76.92
  6645                 0.00    428.92     78.92
  6646                 0.00    428.93     81.91
  6648                 0.00    428.93     82.92
  6649                 0.00    428.95     89.95
  665                  0.00    428.95     83.95
  666                  0.00    428.98     88.98
  6665                 0.00    428.99     63.85
  6666                 0.00    428.99     61.33
  667                  0.00    428.92     76.92
  668                  0.00    428.94     98.94
  669                  0.00    428.98     83.98
  1                    0.00    428.98     98.98
  10                   0.00    428.90     76.90
  100                  0.00    428.72     73.72
  100B               113.00    427.42     69.42
  101                  0.00    428.95     75.95
  103                  0.00    428.95     89.95
  104                  0.00    428.95     89.95
  105                  0.00    428.95     73.95
  106                  0.00    428.95     73.95
  107                  0.00    428.97     89.97
  108                  0.00    428.97     93.41
  109                  0.00    428.97     91.97
  11B                  0.00    428.95     85.95
  110                  0.00    428.96     82.96
  111                 57.00    428.95     90.97
  112                  0.00    428.96     86.96
  113                  0.00    428.95    105.95
  114                  0.00    428.95     80.95
  115                  0.00    428.95     82.95
  116                  0.00    428.95     83.95
  117                  0.00    428.95     85.95
  118                  0.00    428.95     89.95
  119                  0.00    428.95    106.14
  12                   0.00    428.95     98.61
  121                  0.00    428.95     78.95
  122                  0.00    428.95     81.95
  123                  0.00    428.95     82.95
  125                  0.00    428.95     77.95
  126                  0.00    428.95     80.95
  127                  0.00    428.95     85.62
  128                  0.00    428.94     66.94
  129                  0.00    428.94     72.94
  130                  0.00    428.94     87.86
  130B                 0.00    428.94     75.94
  132                  0.00    428.94     95.94
  134                  0.00    428.94    107.94
  135                  0.00    428.94    112.94
  137                  0.00    428.94    119.94
  139                  0.00    428.94     68.94
  14                   0.00    428.95     90.95
  140                  0.00    428.94     77.94
  141                  0.00    428.94     76.94
  142                  0.00    428.94     67.94
  143                  0.00    428.94     87.97
  144                  0.00    428.94     69.94
  146                  0.00    428.85     82.85
  147                  0.00    428.79    107.79
  148                  0.00    428.84     95.84
  149                  0.00    428.63    115.42
  15                   0.00    428.95     93.95
  150                 88.00    428.44    120.37
  151                  0.00    428.44    123.20
  152                  0.00    428.44    118.42
  153                  0.00    428.44    118.44
  154                  0.00    428.92    103.92
  157                  0.00    428.92    125.92
  158A                 0.00    428.92    107.92
  158B                 0.00    428.92    107.92
  16B                  0.00    428.95     94.95
  160                  0.00    428.99     61.99
  162                  0.00    428.99     60.99
  163                  0.00    428.99     54.99
  164                  0.00    428.99     69.33
  165                  0.00    428.99     67.69
  166                  0.00    428.99     67.98
  167                  0.00    428.99     58.35
  169                  0.00    428.99     62.49
  17A                  0.00    428.95     93.95
  170                  0.00    428.99     69.99
  17B                  0.00    428.95     93.95
  171                  0.00    428.99     76.99
  172                  0.00    428.99     88.99
  18B                  0.00    428.95    103.95
  19                   0.00    428.99     70.99
  2                    0.00    428.98    102.98
  20                   0.00    428.99     64.99
  2002                 0.00    428.98     78.98
  2003                 0.00    428.98     78.98
  21                   0.00    428.98     66.25
  22                   0.00    428.98     67.38
  222                  0.00    428.98     78.98
  24                   0.00    428.97     84.97
  25                   0.00    428.97     83.97
  26                   0.00    428.96     80.96
  27                   0.00    428.96     78.96
  28                   0.00    428.96     80.96
  29                  58.00    428.94     72.94
  3                    0.00    428.97     88.62
  30                   0.00    428.94     67.94
  3002                 0.00    428.99     42.99
  3004                 0.00    428.99     42.99
  3005                 0.00    428.99     42.99
  3008                 0.00    428.99     43.99
  3012                 0.00    428.99     58.26
  3013                 0.00    428.99     64.06
  3016                 0.00    428.99     63.99
  3017                 0.00    428.99     46.99
  3018                 0.00    428.99     51.99
  3019                 0.00    428.99     59.60
  3020                 0.00    428.99     60.88
  3024                 0.00    428.99     64.05
  31                   0.00    428.92     71.13
  3152                 0.00    428.99     62.79
  32                   0.00    428.93     70.93
  34                   0.00    428.92     77.90
  35                   0.00    428.92     91.92
  36                   0.00    428.92    100.92
  39                   0.00    428.92    115.92
  41                   0.00    428.92    121.92
  46                   0.00    428.99     52.99
  47                   0.00    428.99     70.81
  48                   0.00    428.99     84.99
  49                   0.00    428.99     76.99
  5                    0.00    428.96     81.96
  52                   0.00    428.99     77.99
  53                   0.00    428.99     72.99
  54                   0.00    428.99     83.99
  55                   0.00    428.98     98.98
  56                   0.00    428.98     94.98
  58                   0.00    428.98     95.98
  59                   0.00    428.98     99.98
  6                    0.00    428.92     76.92
  60                   0.00    428.97     83.97
  61                   0.00    428.97     89.97
  62                   0.00    428.92     74.92
  64                   0.00    428.98     97.98
  65                   0.00    428.98     88.98
  66                   0.00    428.98     89.98
  67                   0.00    428.98     96.98
  68                   0.00    428.98     89.98
  69                   0.00    428.98     77.98
  7                    0.00    428.96     75.96
  70                   0.00    428.98     88.98
  71                   0.00    428.98     91.98
  72                   0.00    428.92     72.92
  73                   0.00    428.89     73.89
  77                   0.00    428.92     72.92
  78                   0.00    428.92     88.78
  79                   0.00    428.96     75.96
  8                    0.00    428.92     78.92
  80                  94.00    428.93     79.93
  81                   0.00    428.93     69.93
  82                   0.00    428.93     70.93
  85                   0.00    428.98     89.98
  86                   0.00    428.98     91.98
  87                   0.00    428.84     68.84
  88                   0.00    428.81     75.81
  89                   0.00    428.76     61.76
  90                   0.00    428.72     72.72
  91                   0.00    428.53     56.53
  92                   0.00    428.02     68.02
  91B                103.00    427.90     67.90
  94                   0.00    428.95     89.95
  95                   0.00    428.95     85.95
  97                   0.00    428.95     97.95
  99                   0.00    428.76     78.76
  74                   0.00    428.89     70.18
  1074                 0.00    428.89     70.89
  11A                  0.00    428.95     85.95
  1011                 0.00    428.95     85.95
  0                 -513.00    429.00      0.00  Reservoir
   
   
  Link Results:
  ----------------------------------------------
                       Flow  Velocity  Headloss
  Link                 m3/h       m/s    /1000m
  ----------------------------------------------
  TU1                 -0.00      0.00      0.00
  TU10                 0.00      0.00      0.00
  TU100                0.00      0.00      0.00
  TU101                0.00      0.00      0.00
  TU102                0.00      0.00      0.00
  TU103                0.00      0.00      0.00
  TU104                0.00      0.00      0.00
  TU105              310.00      0.14      0.02
  TU106              310.00      0.14      0.02
  TU107                0.00      0.00      0.00
  TU108              310.00      0.14      0.02
  TU109              310.00      0.14      0.02
  TU11                -0.00      0.00      0.00
  TU110              310.00      0.14      0.02
  TU111                0.00      0.00      0.00
  TU112               -0.00      0.00      0.00
  TU113                0.00      0.00      0.00
  TU114                0.00      0.00      0.00
  TU115              310.00      0.11      0.01
  TU116              310.00      0.11      0.01
  TU117               -0.00      0.00      0.00
  TU118                0.00      0.00      0.00
  TU119              310.00      0.11      0.01
  TU12                 0.00      0.00      0.00
  TU120              310.00      0.11      0.01
  TU121                0.00      0.00      0.00
  TU122                0.00      0.00      0.00
  TU123               -0.00      0.00      0.00
  TU124                0.00      0.00      0.00
  TU125               -0.00      0.00      0.00
  TU126               -0.00      0.00      0.00
  TU127               -0.00      0.00      0.00
  TU128                0.00      0.00      0.00
  TU129                0.00      0.00      0.00
  TU13                 0.00      0.00      0.00
  TU130                0.00      0.00      0.00
  TU131               -0.00      0.00      0.00
  TU132                0.00      0.00      0.00
  TU133               -0.00      0.00      0.00
  TU134              103.00      1.11      5.59
  TU135               -0.00      0.00      0.00
  TU136                0.00      0.00      0.00
  TU137                0.00      0.00      0.00
  TU138                0.00      0.00      0.00
  TU139                0.00      0.00      0.00
  TU14                -0.00      0.00      0.00
  TU140                0.00      0.00      0.00
  TU141                0.00      0.00      0.00
  TU142                0.00      0.00      0.00
  TU143               -0.00      0.00      0.00
  TU144              113.00      1.22      6.62
  TU145              103.00      0.71      1.91
  TU146              216.00      0.94      2.39
  TU147              216.00      0.58      0.75
  TU148               -0.00      0.00      0.00
  TU149               -0.00      0.00      0.00
  TU15                -0.00      0.00      0.00
  TU150               -0.00      0.00      0.00
  TU151              216.00      0.31      0.16
  TU152               -0.00      0.00      0.00
  TU15301            216.00      0.31      0.16
  TU15302            216.00      0.31      0.16
  TU1074               0.00      0.00      0.00
  TU154              216.00      0.21      0.07
  TU155                0.00      0.00      0.00
  TU156              216.00      0.21      0.07
  TU157              216.00      0.21      0.07
  TU158                0.00      0.00      0.00
  TU159              216.00      0.21      0.07
  TU16               513.00      0.09      0.01
  TU160                0.00      0.00      0.00
  TU161              216.00      0.21      0.07
  TU162               94.00      0.07      0.01
  TU163               94.00      0.07      0.01
  TU164               94.00      0.07      0.01
  TU166               -0.00      0.00      0.00
  TU167               -0.00      0.00      0.00
  TU168                0.00      0.00      0.00
  TU169                0.00      0.00      0.00
  TU17                 0.00      0.00      0.00
  TU170               94.00      0.43      0.59
  TU171               -0.00      0.00      0.00
  TU17201              0.00      0.00      0.00
  TU17202              0.00      0.00      0.00
  TU1011A             -0.00      0.00      0.00
  TU173               -0.00      0.00      0.00
  TU174               -0.00      0.00      0.00
  TU175               -0.00      0.00      0.00
  TU176               -0.00      0.00      0.00
  TU177               -0.00      0.00      0.00
  TU178               -0.00      0.00      0.00
  TU179                0.00      0.00      0.00
  TU18                 0.00      0.00      0.00
  TU180                0.00      0.00      0.00
  TU181                0.00      0.00      0.00
  TU182                0.00      0.00      0.00
  TU183                0.00      0.00      0.00
  TU184                0.00      0.00      0.00
  TU185               -0.00      0.00      0.00
  TU186               -0.00      0.00      0.00
  TU187               -0.00      0.00      0.00
  TU188              203.00      0.15      0.03
  TU189              203.00      0.15      0.03
  TU19                 0.00      0.00      0.00
  TU190               -0.00      0.00      0.00
  TU191               -0.00      0.00      0.00
  TU192                0.00      0.00      0.00
  TU193                0.00      0.00      0.00
  TU194               -0.00      0.00      0.00
  TU195                0.00      0.00      0.00
  TU196                0.00      0.00      0.00
  TU197               -0.00      0.00      0.00
  TU198                0.00      0.00      0.00
  TU199                0.00      0.00      0.00
  TU2                  0.00      0.00      0.00
  TU20                 0.00      0.00      0.00
  TU200               -0.00      0.00      0.00
  TU201                0.00      0.00      0.00
  TU203                0.00      0.00      0.00
  TU204              203.00      0.09      0.01
  TU205              203.00      0.09      0.01
  TU21                -0.00      0.00      0.00
  TU22               203.00      0.11      0.01
  TU23               203.00      0.11      0.01
  TU24               203.00      0.11      0.02
  TU25               203.00      0.11      0.01
  TU26                88.00      0.09      0.01
  TU27                88.00      0.09      0.01
  TU28               146.00      0.14      0.03
  TU29               146.00      0.14      0.03
  TU3                  0.00      0.00      0.00
  TU30                 0.00      0.00      0.00
  TU31                -0.00      0.00      0.00
  TU32                 0.00      0.00      0.00
  TU33                 0.00      0.00      0.00
  TU34                 0.00      0.00      0.00
  TU35                 0.00      0.00      0.00
  TU36                 0.00      0.00      0.00
  TU37                 0.00      0.00      0.00
  TU38                 0.00      0.00      0.00
  TU39                -0.00      0.00      0.00
  TU4                216.00      0.31      0.16
  TU40                -0.00      0.00      0.00
  TU41                -0.00      0.00      0.00
  TU42                 0.00      0.00      0.00
  TU43                57.00      0.08      0.01
  TU44                57.00      0.08      0.01
  TU45                57.00      0.08      0.01
  TU46                57.00      0.08      0.01
  TU47                -0.00      0.00      0.00
  TU48                 0.00      0.00      0.00
  TU49                 0.00      0.00      0.00
  TU5                216.00      0.31      0.16
  TU50                 0.00      0.00      0.00
  TU51                 0.00      0.00      0.00
  TU52                 0.00      0.00      0.00
  TU53                 0.00      0.00      0.00
  TU54                 0.00      0.00      0.00
  TU55                 0.00      0.00      0.00
  TU56                 0.00      0.00      0.00
  TU57                 0.00      0.00      0.00
  TU58                 0.00      0.00      0.00
  TU59                 0.00      0.00      0.00
  TU6                 -0.00      0.00      0.00
  TU60                -0.00      0.00      0.00
  TU61                 0.00      0.00      0.00
  TU62                88.00      0.47      0.76
  TU63                 0.00      0.00      0.00
  TU64                88.00      0.47      0.76
  TU65                 0.00      0.00      0.00
  TU66                88.00      0.29      0.24
  TU67                88.00      0.25      0.17
  TU68                88.00      0.25      0.17
  TU69                88.00      0.12      0.03
  TU7                  0.00      0.00      0.00
  TU70                88.00      0.12      0.03
  TU71                88.00      0.12      0.03
  TU72                 0.00      0.00      0.00
  TU73                 0.00      0.00      0.00
  TU74                 0.00      0.00      0.00
  TU75                 0.00      0.00      0.00
  TU76                 0.00      0.00      0.00
  TU77                 0.00      0.00      0.00
  TU78                 0.00      0.00      0.00
  TU79                 0.00      0.00      0.00
  TU8                  0.00      0.00      0.00
  TU80                 0.00      0.00      0.00
  TU81                 0.00      0.00      0.00
  TU82                 0.00      0.00      0.00
  TU83                 0.00      0.00      0.00
  TU84                 0.00      0.00      0.00
  TU85                 0.00      0.00      0.00
  TU86                 0.00      0.00      0.00
  TU87                 0.00      0.00      0.00
  TU88                 0.00      0.00      0.00
  TU89                 0.00      0.00      0.00
  TU9                  0.00      0.00      0.00
  TU90                 0.00      0.00      0.00
  TU91                -0.00      0.00      0.00
  TU92                -0.00      0.00      0.00
  TU93                 0.00      0.00      0.00
  TU94                 0.00      0.00      0.00
  TU95                 0.00      0.00      0.00
  TU96                 0.00      0.00      0.00
  TU97                 0.00      0.00      0.00
  TU98                 0.00      0.00      0.00
  TU99                 0.00      0.00      0.00
  TU4000               0.00      0.00      0.00
   
  Analysis ended Fri Dec  1 09:10:32 2023
