  Page 1                                    Fri Dec  1 09:04:23 2023

  ******************************************************************
  *                           E P A N E T                          *
  *                   Hydraulic and Water Quality                  *
  *                   Analysis for Pipe Networks                   *
  *                         Version 2.2                            *
  ******************************************************************
  
  Analysis begun Fri Dec  1 09:04:23 2023

   
  Node Results:
  ----------------------------------------------
                     Demand      Head  Pressure
  Node                 m3/h         m         m
  ----------------------------------------------
  3661                 0.00    427.97     49.83
  482                  0.00    427.28     81.28
  661                  0.00    424.64     94.64
  6610                 0.00    425.60      3.38
  6611                 0.00    423.42     88.42
  6612                 0.00    425.69     63.32
  6613                 0.00    421.58     66.58
  6615                 0.00    426.54     87.54
  6616                 0.00    425.91     64.91
  6617                 0.00    423.13     80.13
  6618                 0.00    426.66     78.66
  662                  0.00    427.37     99.37
  6620                 0.00    425.69    117.69
  6621                 0.00    425.69     97.69
  6622                 0.00    425.69     88.69
  6623                 0.00    425.69     74.69
  6624                 0.00    425.70     73.70
  6625                 0.00    425.14    113.14
  6626                 0.00    425.25    104.25
  6627                 0.00    424.30    103.31
  6628                 0.00    425.42     86.42
  6629                 0.00    426.22     86.22
  663                  0.00    426.62     85.62
  6630                 0.00    426.60      1.74
  6632                 0.00    426.89     86.89
  6633                 0.00    428.24     65.60
  6634                 0.00    428.32     57.32
  6635                 0.00    427.86     75.86
  6636                 0.00    427.86     71.86
  6637                 0.00    427.58     60.58
  6639                 0.00    425.62     65.62
  664                  0.00    425.97     77.97
  6640                 0.00    425.60     65.60
  6641                 0.00    425.64     66.96
  6642                 0.00    425.64     69.64
  6643                 0.00    425.92     73.92
  6644                 0.00    426.08     74.08
  6645                 0.00    426.15     76.15
  6646                 0.00    425.30     78.28
  6648                 0.00    425.30     79.29
  6649                 0.00    424.51     85.51
  665                  0.00    425.61     80.61
  666                  0.00    426.60     86.60
  6665                 0.00    426.25     61.11
  6666                 0.00    427.04     59.38
  667                  0.00    426.06     74.06
  668                  0.00    424.63     94.63
  669                  0.00    426.05     81.05
  1                   85.00    427.82     97.82
  10                  57.00    425.62     73.62
  100                  0.00    425.64     70.64
  100B                64.00    425.29     67.29
  101                108.00    421.24     68.24
  103                  0.00    424.12     85.12
  104                  0.00    424.12     85.12
  105                 82.00    421.56     66.56
  106                 58.00    421.50     66.50
  107                 74.00    426.26     87.26
  108                 60.00    425.66     90.10
  109                  0.00    426.34     89.34
  11B                171.00    425.46     82.46
  110                 67.00    426.55     80.55
  111                  0.00    426.17     88.19
  112                  0.00    426.37     84.37
  113                  0.00    425.63    102.63
  114                  0.00    424.36     76.36
  115                 53.00    423.58     77.58
  116                  0.00    423.99     78.99
  117                 81.00    423.02     80.02
  118                 77.00    422.07     83.07
  119                  0.00    422.07     99.26
  12                   0.00    424.92     94.58
  121                 60.00    424.80     74.80
  122                 68.00    420.00     73.00
  123                  0.00    423.43     77.43
  125                  0.00    424.73     73.73
  126                 67.00    423.91     75.91
  127                134.00    422.34     79.01
  128                 62.00    425.85     63.85
  129                  0.00    425.14     69.14
  130                130.00    424.75     83.67
  130B                69.00    424.95     71.95
  132                 55.00    418.36     85.36
  134                  0.00    424.30    103.31
  135                 58.00    423.71    107.71
  137                  0.00    423.71    114.71
  139                 67.00    424.19     64.19
  14                  85.00    424.12     86.12
  140                  0.00    424.43     73.43
  141                  0.00    424.41     72.41
  142                  0.00    424.19     63.19
  143                 63.00    415.42     74.45
  144                 88.00    425.48     66.48
  146                  0.00    425.41     79.41
  147                 70.00    424.90    103.90
  148                 67.00    425.37     92.37
  149                  0.00    425.14    111.93
  15                   0.00    423.42     88.42
  150                  0.00    425.02    116.95
  151                  0.00    424.77    119.53
  152                 69.00    422.83    112.81
  153                  0.00    423.49    113.49
  154                  0.00    425.69    100.69
  157                  0.00    425.69    122.69
  158A                 0.00    425.69    104.69
  158B                 0.00    425.69    104.69
  16B                 68.00    424.20     90.20
  160                 49.00    427.52     60.52
  162                 62.00    427.25     59.25
  163                 84.00    426.77     52.77
  164                 60.00    426.74     67.08
  165                 55.00    426.25     64.95
  166                 97.00    426.25     65.24
  167                  0.00    426.25     55.61
  169                 61.00    426.52     60.02
  17A                  0.00    422.87     87.87
  170                  0.00    427.73     68.73
  17B                177.00    422.32     87.32
  171                  0.00    427.86     75.86
  172                  0.00    427.86     87.86
  18B                215.00    416.78     91.78
  19                   0.00    428.24     70.24
  2                    0.00    427.47    101.47
  20                  90.00    427.97     63.97
  2002                 0.00    426.05     76.05
  2003                 0.00    426.05     76.05
  21                  65.00    427.82     65.09
  22                   0.00    427.80     66.20
  222                 73.00    427.49     77.49
  24                   0.00    427.31     83.31
  25                   0.00    427.05     82.05
  26                   0.00    426.66     78.66
  27                   0.00    426.80     76.80
  28                  55.00    426.57     78.57
  29                  54.00    426.00     70.00
  3                   42.00    427.05     86.70
  30                   0.00    425.93     64.93
  3002                 0.00    427.97     41.97
  3004                 0.00    427.97     41.97
  3005                 0.00    427.97     41.97
  3008                 0.00    427.97     42.97
  3012                 0.00    427.97     57.24
  3013                 0.00    427.97     63.04
  3016                 0.00    428.10     63.10
  3017                 0.00    428.49     46.49
  3018                70.00    427.75     50.75
  3019                 0.00    427.97     58.58
  3020                 0.00    427.97     59.86
  3024                 0.00    427.97     63.03
  31                  60.00    425.76     67.97
  3152                 0.00    427.97     61.77
  32                   0.00    425.82     67.82
  34                  69.00    425.53     74.51
  35                   0.00    425.69     88.69
  36                   0.00    425.69     97.69
  39                   0.00    425.69    112.69
  41                   0.00    425.69    118.69
  46                 187.00    427.99     51.99
  47                   0.00    426.62     68.44
  48                   0.00    427.15     83.15
  49                  87.00    426.21     74.21
  5                    0.00    426.83     79.83
  52                   0.00    426.21     75.21
  53                   0.00    428.32     72.32
  54                   0.00    428.09     83.09
  55                   0.00    427.82     97.82
  56                   0.00    427.82     93.82
  58                   0.00    427.82     94.82
  59                   0.00    427.82     98.82
  6                    0.00    426.08     74.08
  60                   0.00    427.05     82.05
  61                   0.00    427.05     88.05
  62                  84.00    423.15     69.15
  64                   0.00    427.17     96.17
  65                  87.00    426.51     86.51
  66                  85.00    426.88     87.88
  67                 109.00    426.67     94.67
  68                   0.00    426.60     87.60
  69                   0.00    426.60     75.60
  7                   50.00    426.24     73.24
  70                 169.00    425.42     85.42
  71                  65.00    425.14     88.14
  72                  89.00    425.87     69.87
  73                 175.00    425.88     70.88
  77                   0.00    425.87     69.87
  78                   0.00    425.87     85.73
  79                  46.00    426.24     73.24
  8                   41.00    426.05     76.05
  80                  87.00    425.89     76.89
  81                  75.00    423.31     64.31
  82                   0.00    425.30     67.30
  85                   0.00    425.42     86.42
  86                   0.00    425.42     88.42
  87                 101.00    425.73     65.73
  88                  81.00    417.41     64.41
  89                  80.00    425.65     58.65
  90                   0.00    425.64     69.64
  91                   0.00    425.62     53.62
  92                   0.00    425.60     65.60
  91B                  0.00    425.60     65.60
  94                   0.00    424.51     85.51
  95                   0.00    422.03     79.03
  97                 135.00    414.38     83.38
  99                  51.00    425.26     75.26
  74                  73.00    423.87     65.16
  1074                 0.00    425.87     67.87
  11A                141.00    420.12     77.12
  1011                 0.00    420.35     77.35
  0                -5853.00    429.00      0.00  Reservoir
   
   
  Link Results:
  ----------------------------------------------
                       Flow  Velocity  Headloss
  Link                 m3/h       m/s    /1000m
  ----------------------------------------------
  TU1                 -0.00      0.00      0.00
  TU10                82.00      0.89      3.69
  TU100              343.00      0.76      1.08
  TU101              428.00      0.61      0.55
  TU102               87.00      1.55     13.83
  TU103              515.00      0.73      0.77
  TU104              515.00      0.73      0.77
  TU105             2394.00      1.05      0.74
  TU106             2394.00      1.05      0.74
  TU107                0.00      0.00      0.00
  TU108             2436.00      1.06      0.77
  TU109             2951.00      1.29      1.10
  TU11               248.00      1.13      3.47
  TU110             2951.00      1.29      1.10
  TU111                0.00      0.00      0.00
  TU112               -0.00      0.00      0.00
  TU113                0.00      0.00      0.00
  TU114                0.00      0.00      0.00
  TU115             3036.00      1.07      0.69
  TU116             3036.00      1.07      0.69
  TU117               -0.00      0.00      0.00
  TU118                0.00      0.00      0.00
  TU119             3036.00      1.07      0.69
  TU12                 0.00      0.00      0.00
  TU120             3036.00      1.07      0.69
  TU121                0.00      0.00      0.00
  TU122                0.00      0.00      0.00
  TU123               -0.00      0.00      0.00
  TU124                0.00      0.00      0.00
  TU125               87.00      0.64      1.60
  TU126               87.00      0.40      0.52
  TU127               87.00      0.40      0.52
  TU128                0.00      0.00      0.00
  TU129                0.00      0.00      0.00
  TU13                 0.00      0.00      0.00
  TU130               55.00      0.24      0.20
  TU131              152.00      0.66      1.26
  TU132               61.00      0.27      0.24
  TU133              213.00      0.93      2.33
  TU134               -0.00      0.00      0.00
  TU135              419.00      0.93      1.55
  TU136              468.00      1.03      1.90
  TU137              555.00      0.79      0.88
  TU138              555.00      0.79      0.88
  TU139              555.00      0.55      0.36
  TU14               333.00      0.74      1.02
  TU140              812.00      0.80      0.73
  TU141               84.00      1.41     11.32
  TU142              173.00      0.47      0.50
  TU143               -0.00      0.00      0.00
  TU144               64.00      0.69      2.35
  TU145               -0.00      0.00      0.00
  TU146               64.00      0.28      0.26
  TU147               64.00      0.17      0.08
  TU148               -0.00      0.00      0.00
  TU149               -0.00      0.00      0.00
  TU15                -0.00      0.00      0.00
  TU150               -0.00      0.00      0.00
  TU151               64.00      0.09      0.02
  TU152               51.00      0.58      1.79
  TU15301            450.00      0.64      0.60
  TU15302            377.00      0.53      0.43
  TU1074              73.00      0.96      4.81
  TU154              625.00      0.61      0.45
  TU155               57.00      0.96      5.57
  TU156              682.00      0.67      0.53
  TU157              855.00      0.84      0.80
  TU158                0.00      0.00      0.00
  TU159              855.00      0.84      0.80
  TU16              5853.00      1.06      0.45
  TU160               41.00      0.73      3.51
  TU161              896.00      0.88      0.87
  TU162             1498.00      1.08      1.06
  TU163             1402.00      1.01      0.94
  TU164             1448.00      1.05      1.00
  TU166               75.00      1.55     15.07
  TU167               -0.00      0.00      0.00
  TU168                0.00      0.00      0.00
  TU169               75.00      0.63      1.72
  TU17                60.00      1.07      7.01
  TU170              162.00      0.74      1.60
  TU171             1240.00      0.90      0.75
  TU17201            276.00      3.63     56.09
  TU17202            135.00      1.78     14.85
  TU1011A            141.00      1.85     16.09
  TU173              276.00      2.02     13.24
  TU174               -0.00      0.00      0.00
  TU175              276.00      1.26      4.23
  TU176              793.00      0.78      0.70
  TU177              964.00      0.95      1.00
  TU178              793.00      0.78      0.70
  TU179              392.00      1.11      2.52
  TU18                60.00      0.69      2.40
  TU180              392.00      1.11      2.52
  TU181              215.00      1.81     11.79
  TU182              392.00      1.79      8.07
  TU183                0.00      0.00      0.00
  TU184                0.00      0.00      0.00
  TU185              540.00      1.19      2.47
  TU186              273.00      0.74      1.15
  TU187              357.00      0.79      1.16
  TU188             1643.00      1.19      1.26
  TU189             1643.00      1.19      1.26
  TU19                74.00      1.32     10.28
  TU190               69.00      0.91      4.35
  TU191               -0.00      0.00      0.00
  TU192                0.00      0.00      0.00
  TU193                0.00      0.00      0.00
  TU194               -0.00      0.00      0.00
  TU195                0.00      0.00      0.00
  TU196                0.00      0.00      0.00
  TU197                0.00      0.00      0.00
  TU198                0.00      0.00      0.00
  TU199                0.00      0.00      0.00
  TU2                  0.00      0.00      0.00
  TU20               134.00      0.98      3.51
  TU200               -0.00      0.00      0.00
  TU201                0.00      0.00      0.00
  TU203               70.00      1.18      8.11
  TU204             2005.00      0.88      0.54
  TU205             2005.00      0.88      0.54
  TU21                69.00      0.58      1.48
  TU22              1777.00      0.98      0.76
  TU23              1850.00      1.02      0.82
  TU24              1850.00      1.02      0.82
  TU25              1915.00      1.06      0.87
  TU26               927.00      0.91      0.93
  TU27               927.00      0.91      0.93
  TU28               981.00      0.96      1.03
  TU29              1036.00      1.02      1.14
  TU3                 81.00      1.36     10.59
  TU30                 0.00      0.00      0.00
  TU31                77.00      0.88      3.77
  TU32                81.00      0.92      4.13
  TU33               158.00      0.72      1.52
  TU34               211.00      0.97      2.58
  TU35                68.00      1.21      8.81
  TU36                68.00      0.78      3.01
  TU37               279.00      0.79      1.35
  TU38               279.00      0.79      1.35
  TU39               134.00      1.53     10.38
  TU4                195.00      0.28      0.13
  TU40               201.00      1.47      7.37
  TU41               480.00      1.06      1.99
  TU42                84.00      0.58      1.32
  TU43               540.00      0.76      0.84
  TU44               540.00      0.76      0.84
  TU45               607.00      0.86      1.04
  TU46               607.00      0.86      1.04
  TU47                -0.00      0.00      0.00
  TU48                 0.00      0.00      0.00
  TU49                 0.00      0.00      0.00
  TU5                276.00      0.39      0.25
  TU50                 0.00      0.00      0.00
  TU51                 0.00      0.00      0.00
  TU52                 0.00      0.00      0.00
  TU53                 0.00      0.00      0.00
  TU54                 0.00      0.00      0.00
  TU55                 0.00      0.00      0.00
  TU56                 0.00      0.00      0.00
  TU57                 0.00      0.00      0.00
  TU58                69.00      1.23      9.05
  TU59                69.00      0.20      0.11
  TU6                540.00      0.76      0.84
  TU60                69.00      1.42     12.94
  TU61                 0.00      0.00      0.00
  TU62                69.00      0.37      0.49
  TU63                 0.00      0.00      0.00
  TU64                69.00      0.37      0.49
  TU65                70.00      1.44     13.28
  TU66               139.00      0.46      0.55
  TU67               206.00      0.58      0.78
  TU68               206.00      0.58      0.78
  TU69               275.00      0.39      0.24
  TU7                  0.00      0.00      0.00
  TU70               335.00      0.47      0.35
  TU71               335.00      0.47      0.35
  TU72               243.00      0.54      0.57
  TU73               373.00      0.82      1.25
  TU74               442.00      0.98      1.71
  TU75               442.00      0.98      1.71
  TU76               530.00      1.17      2.39
  TU77               592.00      1.31      2.93
  TU78                 0.00      0.00      0.00
  TU79                58.00      0.76      3.17
  TU8                108.00      1.17      6.10
  TU80                 0.00      0.00      0.00
  TU81                58.00      0.49      1.08
  TU82                63.00      1.12      7.66
  TU83               118.00      1.55     11.59
  TU84                 0.00      0.00      0.00
  TU85                67.00      0.49      1.00
  TU86                67.00      0.31      0.32
  TU87                67.00      0.36      0.46
  TU88               185.00      0.41      0.35
  TU89                 0.00      0.00      0.00
  TU9                 58.00      0.98      5.75
  TU90                 0.00      0.00      0.00
  TU91                -0.00      0.00      0.00
  TU92               169.00      0.77      1.72
  TU93               169.00      0.48      0.54
  TU94                65.00      0.74      2.77
  TU95               234.00      0.66      0.98
  TU96                 0.00      0.00      0.00
  TU97                 0.00      0.00      0.00
  TU98                 0.00      0.00      0.00
  TU99               234.00      0.52      0.54
  TU4000               0.00      0.00      0.00
   
  Analysis ended Fri Dec  1 09:04:23 2023
