  Page 1                                    Fri Dec  1 09:08:09 2023

  ******************************************************************
  *                           E P A N E T                          *
  *                   Hydraulic and Water Quality                  *
  *                   Analysis for Pipe Networks                   *
  *                         Version 2.2                            *
  ******************************************************************
  
  Analysis begun Fri Dec  1 09:08:09 2023

   
  Node Results:
  ----------------------------------------------
                     Demand      Head  Pressure
  Node                 m3/h         m         m
  ----------------------------------------------
  3661                 0.00    428.89     50.75
  482                  0.00    428.90     82.90
  661                  0.00    428.76     98.76
  6610                 0.00    426.82      0.90
  6611                 0.00    427.32     92.32
  6612                 0.00    427.60     65.23
  6613                 0.00    425.47     70.47
  6615                 0.00    428.86     89.86
  6616                 0.00    428.76     67.76
  6617                 0.00    428.62     85.62
  6618                 0.00    428.82     80.82
  662                  0.00    428.47    100.47
  6620                 0.00    427.33    119.33
  6621                 0.00    428.21    100.21
  6622                 0.00    428.41     91.41
  6623                 0.00    428.61     77.61
  6624                 0.00    428.65     76.65
  6625                 0.00    428.65    116.65
  6626                 0.00    428.65    107.65
  6627                 0.00    428.76    107.76
  6628                 0.00    427.92     88.92
  6629                 0.00    427.92     87.92
  663                  0.00    428.21     87.21
  6630                 0.00    427.57      2.71
  6632                 0.00    428.13     88.13
  6633                 0.00    428.81     66.17
  6634                 0.00    428.84     57.84
  6635                 0.00    428.90     76.90
  6636                 0.00    428.90     72.90
  6637                 0.00    428.90     61.90
  6639                 0.00    427.25     67.25
  664                  0.00    428.02     80.02
  6640                 0.00    427.07     67.07
  6641                 0.00    427.39     68.71
  6642                 0.00    427.39     71.39
  6643                 0.00    427.89     75.89
  6644                 0.00    427.96     75.96
  6645                 0.00    427.99     77.99
  6646                 0.00    426.69     79.67
  6648                 0.00    426.87     80.86
  6649                 0.00    427.68     88.68
  665                  0.00    427.94     82.94
  666                  0.00    427.97     87.97
  6665                 0.00    428.75     63.61
  6666                 0.00    428.88     61.22
  667                  0.00    427.95     75.95
  668                  0.00    428.76     98.76
  669                  0.00    427.92     82.92
  1                   86.00    428.64     98.64
  10                   0.00    427.89     75.89
  100                  0.00    427.39     72.39
  100B                82.00    426.59     68.59
  101                116.00    425.08     72.08
  103                 42.00    427.24     88.24
  104                  0.00    427.24     88.24
  105                100.00    425.44     70.44
  106                  0.00    425.47     70.47
  107                  0.00    428.86     89.86
  108                  0.00    428.86     93.30
  109                  0.00    428.86     91.86
  11B                  0.00    427.90     84.90
  110                  0.00    428.82     82.82
  111                  0.00    428.80     90.82
  112                  0.00    428.81     86.81
  113                  0.00    428.77    105.77
  114                 52.00    428.67     80.67
  115                 51.00    428.62     82.62
  116                  0.00    428.65     83.65
  117                  0.00    428.62     85.62
  118                  0.00    428.62     89.62
  119                  0.00    428.62    105.81
  12                   0.00    427.73     97.39
  121                  0.00    428.73     78.73
  122                  0.00    428.65     81.65
  123                  0.00    428.65     82.65
  125                  0.00    428.73     77.73
  126                  0.00    428.73     80.73
  127                  0.00    428.73     85.40
  128                  0.00    428.76     66.76
  129                  0.00    428.76     72.76
  130                  0.00    428.76     87.68
  130B                 0.00    428.76     75.76
  132                  0.00    428.76     95.76
  134                  0.00    428.76    107.76
  135                  0.00    428.76    112.76
  137                  0.00    428.76    119.76
  139                  0.00    428.76     68.76
  14                   0.00    427.44     89.44
  140                  0.00    428.76     77.76
  141                  0.00    428.76     76.76
  142                  0.00    428.76     67.76
  143                  0.00    428.76     87.79
  144                  0.00    428.76     69.76
  146                  0.00    428.65     82.65
  147                  0.00    428.65    107.65
  148                  0.00    428.65     95.65
  149                  0.00    428.65    115.44
  15                   0.00    427.32     92.32
  150                  0.00    428.65    120.58
  151                  0.00    428.65    123.41
  152                  0.00    428.65    118.63
  153                  0.00    428.65    118.65
  154                  0.00    428.12    103.12
  157                  0.00    427.33    124.33
  158A                77.00    414.79     93.79
  158B                77.00    414.76     93.76
  16B                  0.00    427.49     93.49
  160                  0.00    428.89     61.89
  162                  0.00    428.89     60.89
  163                  0.00    428.88     54.88
  164                  0.00    428.85     69.19
  165                 66.00    428.75     67.45
  166                  0.00    428.76     67.75
  167                  0.00    428.75     58.11
  169                  0.00    428.84     62.34
  17A                171.00    427.20     92.20
  170                  0.00    428.90     69.90
  17B                  0.00    427.20     92.20
  171                  0.00    428.90     76.90
  172                  0.00    428.90     88.90
  18B                  0.00    427.20    102.20
  19                   0.00    428.81     70.81
  2                    0.00    428.51    102.51
  20                   0.00    428.89     64.89
  2002                 0.00    427.92     77.92
  2003                 0.00    427.92     77.92
  21                   0.00    428.88     66.15
  22                   0.00    428.88     67.28
  222                  0.00    428.87     78.87
  24                   0.00    428.86     84.86
  25                   0.00    428.84     83.84
  26                   0.00    428.82     80.82
  27                   0.00    428.83     78.83
  28                   0.00    428.81     80.81
  29                   0.00    428.77     72.77
  3                    0.00    428.36     88.01
  30                   0.00    428.76     67.76
  3002                 0.00    428.89     42.89
  3004                 0.00    428.89     42.89
  3005                 0.00    428.89     42.89
  3008                 0.00    428.89     43.89
  3012                 0.00    428.89     58.16
  3013                 0.00    428.89     63.96
  3016                 0.00    428.89     63.89
  3017                 0.00    428.91     46.91
  3018                 0.00    428.91     51.91
  3019                 0.00    428.89     59.50
  3020                 0.00    428.89     60.78
  3024                 0.00    428.89     63.95
  31                  90.00    428.67     70.88
  3152                 0.00    428.89     62.69
  32                   0.00    428.71     70.71
  34                   0.00    428.61     77.59
  35                   0.00    428.41     91.41
  36                   0.00    428.21    100.21
  39                   0.00    427.83    114.83
  41                   0.00    427.04    120.04
  46                   0.00    428.91     52.91
  47                   0.00    428.84     70.66
  48                   0.00    428.90     84.90
  49                   0.00    428.90     76.90
  5                    0.00    428.28     81.28
  52                   0.00    428.90     77.90
  53                   0.00    428.84     72.84
  54                   0.00    428.75     83.75
  55                   0.00    428.64     98.64
  56                   0.00    428.64     94.64
  58                   0.00    428.64     95.64
  59                   0.00    428.64     99.64
  6                   60.00    427.75     75.75
  60                   0.00    428.36     83.36
  61                   0.00    428.36     89.36
  62                 106.00    423.70     69.70
  64                   0.00    428.33     97.33
  65                  88.00    427.75     87.75
  66                  78.00    428.12     89.12
  67                 117.00    428.00     96.00
  68                   0.00    427.57     88.57
  69                  59.00    426.78     75.78
  7                    0.00    428.11     75.11
  70                   0.00    427.92     87.92
  71                  81.00    426.31     89.31
  72                   0.00    427.87     71.87
  73                   0.00    427.87     72.87
  77                   0.00    427.87     71.87
  78                   0.00    427.87     87.73
  79                   0.00    428.10     75.10
  8                    0.00    427.99     77.99
  80                  95.00    427.91     78.91
  81                   0.00    426.87     67.87
  82                 102.00    426.20     68.20
  85                   0.00    427.92     88.92
  86                   0.00    427.92     90.92
  87                   0.00    427.69     67.69
  88                   0.00    427.60     74.60
  89                  94.00    427.42     60.42
  90                   0.00    427.39     71.39
  91                   0.00    427.25     55.25
  92                   0.00    426.82     66.82
  91B                101.00    426.70     66.70
  94                   0.00    427.68     88.68
  95                   0.00    427.10     84.10
  97                   0.00    426.71     95.71
  99                 149.00    424.66     74.66
  74                   0.00    427.85     69.14
  1074                 0.00    427.85     69.85
  11A                125.00    426.53     83.53
  1011                 0.00    426.71     83.71
  0                -2265.00    429.00      0.00  Reservoir
   
   
  Link Results:
  ----------------------------------------------
                       Flow  Velocity  Headloss
  Link                 m3/h       m/s    /1000m
  ----------------------------------------------
  TU1                 -0.00      0.00      0.00
  TU10               100.00      1.08      5.30
  TU100              257.00      0.57      0.64
  TU101              335.00      0.47      0.35
  TU102               88.00      1.57     14.12
  TU103              423.00      0.60      0.54
  TU104              423.00      0.60      0.54
  TU105             1343.00      0.59      0.26
  TU106             1343.00      0.59      0.26
  TU107                0.00      0.00      0.00
  TU108             1343.00      0.59      0.26
  TU109             1766.00      0.77      0.42
  TU11               216.00      0.99      2.70
  TU110             1766.00      0.77      0.42
  TU111                0.00      0.00      0.00
  TU112               -0.00      0.00      0.00
  TU113                0.00      0.00      0.00
  TU114                0.00      0.00      0.00
  TU115             1852.00      0.66      0.28
  TU116             1852.00      0.66      0.28
  TU117               -0.00      0.00      0.00
  TU118                0.00      0.00      0.00
  TU119             1852.00      0.66      0.28
  TU12                 0.00      0.00      0.00
  TU120             1852.00      0.66      0.28
  TU121                0.00      0.00      0.00
  TU122                0.00      0.00      0.00
  TU123               -0.00      0.00      0.00
  TU124                0.00      0.00      0.00
  TU125               -0.00      0.00      0.00
  TU126               -0.00      0.00      0.00
  TU127               -0.00      0.00      0.00
  TU128                0.00      0.00      0.00
  TU129                0.00      0.00      0.00
  TU13                42.00      0.31      0.43
  TU130               66.00      0.29      0.28
  TU131               66.00      0.29      0.28
  TU132                0.00      0.00      0.00
  TU133               66.00      0.29      0.28
  TU134              101.00      1.09      5.40
  TU135               66.00      0.15      0.05
  TU136               66.00      0.15      0.05
  TU137               66.00      0.09      0.02
  TU138               66.00      0.09      0.02
  TU139               66.00      0.06      0.01
  TU14               258.00      0.57      0.64
  TU140               66.00      0.06      0.01
  TU141              106.00      1.78     17.35
  TU142              106.00      0.29      0.21
  TU143               -0.00      0.00      0.00
  TU144               82.00      0.89      3.69
  TU145              101.00      0.70      1.84
  TU146              183.00      0.80      1.77
  TU147              183.00      0.49      0.56
  TU148               -0.00      0.00      0.00
  TU149               -0.00      0.00      0.00
  TU15                -0.00      0.00      0.00
  TU150               -0.00      0.00      0.00
  TU151              183.00      0.26      0.12
  TU152              149.00      1.70     12.62
  TU15301            426.00      0.60      0.54
  TU15302            426.00      0.60      0.54
  TU1074               0.00      0.00      0.00
  TU154              426.00      0.42      0.22
  TU155               -0.00      0.00      0.00
  TU156              426.00      0.42      0.22
  TU157              532.00      0.52      0.34
  TU158               60.00      1.07      7.01
  TU159              592.00      0.58      0.41
  TU16              2265.00      0.41      0.08
  TU160                0.00      0.00      0.00
  TU161              592.00      0.58      0.41
  TU162              751.00      0.54      0.30
  TU163              751.00      0.54      0.30
  TU164              751.00      0.54      0.30
  TU166               -0.00      0.00      0.00
  TU167              102.00      1.34      8.87
  TU168              102.00      1.34      8.87
  TU169              102.00      0.86      3.00
  TU17                -0.00      0.00      0.00
  TU170              197.00      0.90      2.28
  TU171              554.00      0.40      0.17
  TU17201            125.00      1.64     12.89
  TU17202              0.00      0.00      0.00
  TU1011A            125.00      1.64     12.89
  TU173              125.00      0.91      3.09
  TU174               -0.00      0.00      0.00
  TU175              125.00      0.57      1.00
  TU176              429.00      0.42      0.23
  TU177              429.00      0.42      0.23
  TU178              429.00      0.42      0.23
  TU179              171.00      0.49      0.55
  TU18                 0.00      0.00      0.00
  TU180              171.00      0.49      0.55
  TU181                0.00      0.00      0.00
  TU182                0.00      0.00      0.00
  TU183                0.00      0.00      0.00
  TU184                0.00      0.00      0.00
  TU185              103.00      0.23      0.12
  TU186               66.00      0.18      0.09
  TU187               66.00      0.15      0.05
  TU188              347.00      0.25      0.07
  TU189              347.00      0.25      0.07
  TU19                 0.00      0.00      0.00
  TU190               -0.00      0.00      0.00
  TU191                0.00      0.00      0.00
  TU192                0.00      0.00      0.00
  TU193                0.00      0.00      0.00
  TU194               -0.00      0.00      0.00
  TU195                0.00      0.00      0.00
  TU196                0.00      0.00      0.00
  TU197               -0.00      0.00      0.00
  TU198                0.00      0.00      0.00
  TU199                0.00      0.00      0.00
  TU2                  0.00      0.00      0.00
  TU20                 0.00      0.00      0.00
  TU200               -0.00      0.00      0.00
  TU201                0.00      0.00      0.00
  TU203                0.00      0.00      0.00
  TU204              347.00      0.15      0.02
  TU205              347.00      0.15      0.02
  TU21                -0.00      0.00      0.00
  TU22               347.00      0.19      0.04
  TU23               347.00      0.19      0.04
  TU24               347.00      0.19      0.04
  TU25               347.00      0.19      0.04
  TU26               244.00      0.24      0.08
  TU27               244.00      0.24      0.08
  TU28               244.00      0.24      0.08
  TU29               244.00      0.24      0.08
  TU3                  0.00      0.00      0.00
  TU30                 0.00      0.00      0.00
  TU31                -0.00      0.00      0.00
  TU32                 0.00      0.00      0.00
  TU33                 0.00      0.00      0.00
  TU34                51.00      0.23      0.20
  TU35                -0.00      0.00      0.00
  TU36                 0.00      0.00      0.00
  TU37                51.00      0.14      0.06
  TU38               103.00      0.29      0.22
  TU39                -0.00      0.00      0.00
  TU4                426.00      0.60      0.54
  TU40                -0.00      0.00      0.00
  TU41               103.00      0.23      0.12
  TU42                 0.00      0.00      0.00
  TU43               103.00      0.15      0.04
  TU44               103.00      0.15      0.04
  TU45               103.00      0.15      0.04
  TU46               103.00      0.15      0.04
  TU47                -0.00      0.00      0.00
  TU48               154.00      2.03     18.94
  TU49               154.00      1.30      6.38
  TU5                426.00      0.60      0.54
  TU50                 0.00      0.00      0.00
  TU51               154.00      0.82      2.09
  TU52               154.00      0.51      0.66
  TU53               154.00      0.51      0.66
  TU54                 0.00      0.00      0.00
  TU55               154.00      0.51      0.66
  TU56                 0.00      0.00      0.00
  TU57               154.00      0.44      0.46
  TU58                 0.00      0.00      0.00
  TU59               154.00      0.44      0.46
  TU6                103.00      0.15      0.04
  TU60                -0.00      0.00      0.00
  TU61                 0.00      0.00      0.00
  TU62                -0.00      0.00      0.00
  TU63                 0.00      0.00      0.00
  TU64                 0.00      0.00      0.00
  TU65                 0.00      0.00      0.00
  TU66                 0.00      0.00      0.00
  TU67                 0.00      0.00      0.00
  TU68                 0.00      0.00      0.00
  TU69               154.00      0.22      0.09
  TU7                  0.00      0.00      0.00
  TU70               244.00      0.35      0.20
  TU71               244.00      0.35      0.20
  TU72                 0.00      0.00      0.00
  TU73                 0.00      0.00      0.00
  TU74                 0.00      0.00      0.00
  TU75                 0.00      0.00      0.00
  TU76                 0.00      0.00      0.00
  TU77                 0.00      0.00      0.00
  TU78                 0.00      0.00      0.00
  TU79                 0.00      0.00      0.00
  TU8                116.00      1.25      6.95
  TU80                 0.00      0.00      0.00
  TU81                 0.00      0.00      0.00
  TU82                 0.00      0.00      0.00
  TU83                 0.00      0.00      0.00
  TU84                 0.00      0.00      0.00
  TU85                 0.00      0.00      0.00
  TU86                 0.00      0.00      0.00
  TU87                 0.00      0.00      0.00
  TU88                 0.00      0.00      0.00
  TU89                 0.00      0.00      0.00
  TU9                  0.00      0.00      0.00
  TU90                 0.00      0.00      0.00
  TU91                -0.00      0.00      0.00
  TU92                -0.00      0.00      0.00
  TU93                 0.00      0.00      0.00
  TU94                81.00      0.92      4.13
  TU95                81.00      0.23      0.14
  TU96                 0.00      0.00      0.00
  TU97                59.00      1.05      6.80
  TU98                59.00      0.67      2.32
  TU99               140.00      0.31      0.21
  TU4000              77.00      1.01      5.31
   
  Analysis ended Fri Dec  1 09:08:09 2023
