  Page 1                                    Fri Dec  1 09:03:24 2023

  ******************************************************************
  *                           E P A N E T                          *
  *                   Hydraulic and Water Quality                  *
  *                   Analysis for Pipe Networks                   *
  *                         Version 2.2                            *
  ******************************************************************
  
  Analysis begun Fri Dec  1 09:03:24 2023

   
  Node Results:
  ----------------------------------------------
                     Demand      Head  Pressure
  Node                 m3/h         m         m
  ----------------------------------------------
  3661                 0.00    428.07     49.93
  482                  0.00    426.81     80.81
  661                  0.00    424.84     94.84
  6610                 0.00    424.70      2.21
  6611                 0.00    422.43     87.43
  6612                 0.00    425.23     62.86
  6613                 0.00    422.57     67.57
  6615                 0.00    427.37     88.37
  6616                 0.00    426.11     65.11
  6617                 0.00    425.74     82.74
  6618                 0.00    427.06     79.06
  662                  0.00    427.18     99.18
  6620                 0.00    424.72    116.72
  6621                 0.00    425.43     97.43
  6622                 0.00    425.59     88.59
  6623                 0.00    425.75     74.75
  6624                 0.00    425.82     73.82
  6625                 0.00    425.62    113.62
  6626                 0.00    425.62    104.62
  6627                 0.00    424.53    103.53
  6628                 0.00    423.39     84.39
  6629                 0.00    425.45     85.45
  663                  0.00    426.44     85.44
  6630                 0.00    425.66      0.80
  6632                 0.00    426.44     86.44
  6633                 0.00    428.18     65.54
  6634                 0.00    428.28     57.28
  6635                 0.00    428.08     76.08
  6636                 0.00    428.08     72.08
  6637                 0.00    427.83     60.83
  6639                 0.00    425.02     65.02
  664                  0.00    425.86     77.86
  6640                 0.00    424.96     64.96
  6641                 0.00    425.07     66.39
  6642                 0.00    425.07     69.07
  6643                 0.00    425.57     73.57
  6644                 0.00    425.77     73.77
  6645                 0.00    425.87     75.87
  6646                 0.00    425.32     78.30
  6648                 0.00    425.32     79.31
  6649                 0.00    424.35     85.35
  665                  0.00    425.49     80.49
  666                  0.00    425.96     85.96
  6665                 0.00    426.89     61.75
  6666                 0.00    427.51     59.85
  667                  0.00    425.75     73.75
  668                  0.00    424.83     94.83
  669                  0.00    425.25     80.25
  1                  104.00    427.67     97.67
  10                  58.00    425.26     73.26
  100                  0.00    425.07     70.07
  100B                 0.00    424.96     66.96
  101                107.00    422.22     69.22
  103                 50.00    423.71     84.71
  104                  0.00    423.71     84.71
  105                 74.00    422.55     67.55
  106                  0.00    422.57     67.57
  107                  0.00    427.37     88.37
  108                 60.00    426.49     90.93
  109                  0.00    427.17     90.17
  11B                170.00    425.34     82.34
  110                 68.00    427.01     81.01
  111                 55.00    426.85     88.87
  112                  0.00    426.93     84.93
  113                  0.00    426.70    103.70
  114                  0.00    426.23     78.23
  115                 67.00    425.84     79.84
  116                  0.00    426.02     81.02
  117                 69.00    425.66     82.66
  118                  0.00    425.74     86.74
  119                  0.00    425.74    102.93
  12                   0.00    424.78     94.44
  121                  0.00    426.47     76.47
  122                 68.00    422.03     75.03
  123                  0.00    425.46     79.46
  125                  0.00    426.44     75.44
  126                 67.00    426.33     78.33
  127                  0.00    426.33     83.00
  128                 62.00    426.06     64.06
  129                  0.00    425.34     69.34
  130                130.00    424.96     83.88
  130B                69.00    425.15     72.15
  132                 56.00    418.46     85.46
  134                  0.00    424.53    103.53
  135                 56.00    423.97    107.97
  137                  0.00    423.97    114.97
  139                 69.00    424.36     64.36
  14                   0.00    423.99     85.99
  140                  0.00    424.61     73.61
  141                  0.00    424.60     72.60
  142                  0.00    424.36     63.36
  143                 63.00    415.53     74.56
  144                 88.00    425.69     66.69
  146                  0.00    425.68     79.68
  147                 71.00    425.27    104.27
  148                 67.00    425.66     92.66
  149                  0.00    425.62    112.41
  15                 209.00    421.84     86.84
  150                  0.00    425.62    117.55
  151                  0.00    425.62    120.38
  152                  0.00    425.62    115.60
  153                  0.00    425.62    115.62
  154                  0.00    425.35    100.35
  157                  0.00    424.72    121.72
  158A                68.00    414.76     93.76
  158B                68.00    414.73     93.73
  16B                  0.00    424.04     90.04
  160                 63.00    427.79     60.79
  162                  0.00    427.66     59.66
  163                 81.00    427.26     53.26
  164                  0.00    427.33     67.67
  165                 49.00    426.89     65.59
  166                 93.00    426.89     65.88
  167                  0.00    426.89     56.25
  169                 66.00    427.10     60.60
  17A                  0.00    421.94     86.94
  170                  0.00    427.97     68.97
  17B                155.00    421.45     86.45
  171                  0.00    428.08     76.08
  172                  0.00    428.08     88.08
  18B                214.00    415.95     90.95
  19                   0.00    428.18     70.18
  2                    0.00    427.29    101.29
  20                  87.00    428.07     64.07
  2002                 0.00    425.25     75.25
  2003                 0.00    425.25     75.25
  21                  64.00    427.95     65.22
  22                   0.00    427.94     66.34
  222                 72.00    427.69     77.69
  24                   0.00    427.54     83.54
  25                   0.00    427.33     82.33
  26                   0.00    427.06     79.06
  27                   0.00    427.12     77.12
  28                  53.00    426.87     78.87
  29                  54.00    426.21     70.21
  3                   44.00    426.86     86.51
  30                   0.00    426.14     65.14
  3002                 0.00    428.07     42.07
  3004                 0.00    428.07     42.07
  3005                 0.00    428.07     42.07
  3008                 0.00    428.07     43.07
  3012                 0.00    428.07     57.34
  3013                 0.00    428.07     63.14
  3016                 0.00    428.17     63.17
  3017               142.00    428.48     46.48
  3018                73.00    427.94     50.94
  3019                 0.00    428.07     58.68
  3020                 0.00    428.07     59.96
  3024                 0.00    428.07     63.13
  31                  58.00    425.90     68.11
  3152                 0.00    428.07     61.87
  32                   0.00    425.99     67.99
  34                  69.00    425.59     74.57
  35                   0.00    425.59     88.59
  36                   0.00    425.43     97.43
  39                   0.00    425.12    112.12
  41                   0.00    424.50    117.50
  46                   0.00    428.20     52.20
  47                   0.00    427.22     69.04
  48                   0.00    426.38     82.38
  49                  83.00    423.11     71.11
  5                    0.00    426.64     79.64
  52                  89.00    423.07     72.07
  53                   0.00    428.28     72.28
  54                   0.00    428.00     83.00
  55                   0.00    427.42     97.42
  56                  60.00    427.29     93.29
  58                  74.00    426.92     93.92
  59                   0.00    426.92     97.92
  6                   61.00    425.55     73.55
  60                   0.00    426.86     81.86
  61                   0.00    426.86     87.86
  62                  84.00    422.82     68.82
  64                  90.00    426.82     95.82
  65                  86.00    426.07     86.07
  66                  82.00    426.42     87.42
  67                 119.00    426.09     94.09
  68                   0.00    425.66     86.66
  69                  50.00    425.08     74.08
  7                   50.00    426.11     73.11
  70                 135.00    424.48     84.48
  71                  85.00    423.70     86.70
  72                  96.00    425.54     69.54
  73                 179.00    425.53     70.53
  77                   0.00    425.54     69.54
  78                   0.00    425.54     85.40
  79                   0.00    426.11     73.11
  8                    0.00    425.87     75.87
  80                   0.00    425.85     76.85
  81                  70.00    423.57     64.57
  82                   0.00    425.32     67.32
  85                  54.00    423.15     84.15
  86                   0.00    423.39     86.39
  87                   0.00    425.32     65.32
  88                  66.00    419.54     66.54
  89                  84.00    425.08     58.08
  90                   0.00    425.07     69.07
  91                   0.00    425.02     53.02
  92                   0.00    424.70     64.70
  91B                102.00    424.58     64.58
  94                   0.00    424.35     85.35
  95                   0.00    421.77     78.77
  97                 134.00    414.13     83.13
  99                 198.00    420.41     70.41
  74                  70.00    423.66     64.95
  1074                 0.00    425.51     67.51
  11A                148.00    419.77     76.77
  1011                 0.00    420.02     77.02
  0                -5879.00    429.00      0.00  Reservoir
   
   
  Link Results:
  ----------------------------------------------
                       Flow  Velocity  Headloss
  Link                 m3/h       m/s    /1000m
  ----------------------------------------------
  TU1                 -0.00      0.00      0.00
  TU10                74.00      0.80      3.06
  TU100              443.00      0.98      1.72
  TU101              525.00      0.74      0.79
  TU102               86.00      1.53     13.54
  TU103              611.00      0.86      1.05
  TU104              701.00      0.99      1.35
  TU105             2379.00      1.04      0.74
  TU106             2379.00      1.04      0.74
  TU107                0.00      0.00      0.00
  TU108             2423.00      1.06      0.76
  TU109             3124.00      1.36      1.22
  TU11               181.00      0.83      1.95
  TU110             3124.00      1.36      1.22
  TU111                0.00      0.00      0.00
  TU112               74.00      0.54      1.19
  TU113              134.00      0.71      1.62
  TU114              134.00      0.71      1.62
  TU115             3362.00      1.19      0.83
  TU116             3362.00      1.19      0.83
  TU117                0.00      0.00      0.00
  TU118                0.00      0.00      0.00
  TU119             3362.00      1.19      0.83
  TU12                 0.00      0.00      0.00
  TU120             3362.00      1.19      0.83
  TU121               -0.00      0.00      0.00
  TU122                0.00      0.00      0.00
  TU123               -0.00      0.00      0.00
  TU124               89.00      1.02      4.91
  TU125              172.00      1.26      5.54
  TU126              172.00      0.79      1.78
  TU127              172.00      0.79      1.78
  TU128                0.00      0.00      0.00
  TU129                0.00      0.00      0.00
  TU13                50.00      0.37      0.59
  TU130               49.00      0.21      0.16
  TU131              142.00      0.62      1.11
  TU132               66.00      0.29      0.28
  TU133              208.00      0.91      2.23
  TU134              102.00      1.10      5.49
  TU135              289.00      0.64      0.79
  TU136              352.00      0.78      1.13
  TU137              524.00      0.74      0.79
  TU138              524.00      0.74      0.79
  TU139              524.00      0.51      0.33
  TU14               231.00      0.51      0.52
  TU140              597.00      0.59      0.42
  TU141               84.00      1.41     11.32
  TU142              180.00      0.49      0.54
  TU143               -0.00      0.00      0.00
  TU144               -0.00      0.00      0.00
  TU145              102.00      0.71      1.87
  TU146              102.00      0.44      0.61
  TU147              102.00      0.28      0.19
  TU148               -0.00      0.00      0.00
  TU149               -0.00      0.00      0.00
  TU15                -0.00      0.00      0.00
  TU150               -0.00      0.00      0.00
  TU151              102.00      0.14      0.04
  TU152              198.00      2.26     21.34
  TU15301            520.00      0.74      0.78
  TU15302            450.00      0.64      0.60
  TU1074              70.00      0.92      4.46
  TU154              699.00      0.69      0.55
  TU155               58.00      0.98      5.75
  TU156              757.00      0.74      0.64
  TU157              937.00      0.92      0.95
  TU158               61.00      1.09      7.22
  TU159              998.00      0.98      1.07
  TU16              5879.00      1.06      0.46
  TU160                0.00      0.00      0.00
  TU161              998.00      0.98      1.07
  TU162             1381.00      1.00      0.92
  TU163             1331.00      0.96      0.86
  TU164             1331.00      0.96      0.86
  TU166               70.00      1.44     13.28
  TU167               -0.00      0.00      0.00
  TU168                0.00      0.00      0.00
  TU169               70.00      0.59      1.52
  TU17                60.00      1.07      7.01
  TU170               70.00      0.32      0.35
  TU171             1261.00      0.91      0.77
  TU17201            282.00      3.71     58.40
  TU17202            134.00      1.76     14.65
  TU1011A            148.00      1.95     17.60
  TU173              282.00      2.06     13.78
  TU174               -0.00      0.00      0.00
  TU175              282.00      1.29      4.40
  TU176              809.00      0.79      0.72
  TU177              979.00      0.96      1.03
  TU178              809.00      0.79      0.72
  TU179              578.00      1.64      5.16
  TU18                60.00      0.69      2.40
  TU180              369.00      1.05      2.26
  TU181              214.00      1.80     11.68
  TU182              369.00      1.69      7.22
  TU183                0.00      0.00      0.00
  TU184                0.00      0.00      0.00
  TU185              271.00      0.60      0.70
  TU186              208.00      0.56      0.70
  TU187              289.00      0.64      0.79
  TU188             1495.00      1.08      1.06
  TU189             1495.00      1.08      1.06
  TU19                 0.00      0.00      0.00
  TU190               -0.00      0.00      0.00
  TU191                0.00      0.00      0.00
  TU192                0.00      0.00      0.00
  TU193               -0.00      0.00      0.00
  TU194               -0.00      0.00      0.00
  TU195                0.00      0.00      0.00
  TU196                0.00      0.00      0.00
  TU197               -0.00      0.00      0.00
  TU198                0.00      0.00      0.00
  TU199                0.00      0.00      0.00
  TU2                209.00      2.39     23.60
  TU20                60.00      0.44      0.82
  TU200               -0.00      0.00      0.00
  TU201                0.00      0.00      0.00
  TU203               73.00      1.23      8.75
  TU204             1778.00      0.78      0.43
  TU205             1778.00      0.78      0.43
  TU21                -0.00      0.00      0.00
  TU22              1555.00      0.86      0.60
  TU23              1627.00      0.90      0.65
  TU24              1627.00      0.90      0.65
  TU25              1691.00      0.93      0.69
  TU26               994.00      0.98      1.06
  TU27               994.00      0.98      1.06
  TU28              1048.00      1.03      1.17
  TU29              1101.00      1.08      1.28
  TU3                 66.00      1.11      7.28
  TU30                 0.00      0.00      0.00
  TU31                -0.00      0.00      0.00
  TU32                69.00      0.79      3.09
  TU33                69.00      0.32      0.34
  TU34               136.00      0.62      1.16
  TU35                68.00      1.21      8.81
  TU36                68.00      0.78      3.01
  TU37               204.00      0.58      0.76
  TU38               204.00      0.58      0.76
  TU39                -0.00      0.00      0.00
  TU4                384.00      0.54      0.45
  TU40                67.00      0.49      1.00
  TU41               271.00      0.60      0.70
  TU42                81.00      0.56      1.23
  TU43               326.00      0.46      0.33
  TU44               326.00      0.46      0.33
  TU45               394.00      0.56      0.47
  TU46               394.00      0.56      0.47
  TU47                -0.00      0.00      0.00
  TU48               136.00      1.79     15.06
  TU49               136.00      1.14      5.08
  TU5                450.00      0.64      0.60
  TU50                 0.00      0.00      0.00
  TU51               136.00      0.72      1.66
  TU52               136.00      0.45      0.53
  TU53               136.00      0.45      0.53
  TU54                 0.00      0.00      0.00
  TU55               136.00      0.45      0.53
  TU56                 0.00      0.00      0.00
  TU57               136.00      0.39      0.37
  TU58                69.00      1.23      9.05
  TU59               205.00      0.58      0.77
  TU6                271.00      0.38      0.24
  TU60                 0.00      0.00      0.00
  TU61                 0.00      0.00      0.00
  TU62                -0.00      0.00      0.00
  TU63                 0.00      0.00      0.00
  TU64                 0.00      0.00      0.00
  TU65                71.00      1.46     13.63
  TU66                71.00      0.23      0.16
  TU67               138.00      0.39      0.38
  TU68               138.00      0.39      0.38
  TU69               343.00      0.49      0.37
  TU7                  0.00      0.00      0.00
  TU70               401.00      0.57      0.49
  TU71               401.00      0.57      0.49
  TU72               244.00      0.54      0.58
  TU73               374.00      0.83      1.26
  TU74               443.00      0.98      1.72
  TU75               443.00      0.98      1.72
  TU76               531.00      1.17      2.40
  TU77               593.00      1.31      2.94
  TU78                 0.00      0.00      0.00
  TU79                56.00      0.74      2.97
  TU8                107.00      1.16      5.99
  TU80                 0.00      0.00      0.00
  TU81                56.00      0.47      1.01
  TU82                63.00      1.12      7.66
  TU83               119.00      1.56     11.77
  TU84                 0.00      0.00      0.00
  TU85                69.00      0.50      1.05
  TU86                69.00      0.32      0.34
  TU87                69.00      0.37      0.49
  TU88               188.00      0.42      0.36
  TU89                54.00      0.96      5.79
  TU9                  0.00      0.00      0.00
  TU90                 0.00      0.00      0.00
  TU91                54.00      0.62      1.98
  TU92               189.00      0.86      2.11
  TU93               189.00      0.54      0.67
  TU94                85.00      0.97      4.51
  TU95               274.00      0.78      1.31
  TU96                 0.00      0.00      0.00
  TU97                50.00      0.89      5.03
  TU98                50.00      0.57      1.72
  TU99               324.00      0.72      0.97
  TU4000              68.00      0.89      4.23
   
  Analysis ended Fri Dec  1 09:03:24 2023
