  Page 1                                    Fri Dec  1 08:47:40 2023

  ******************************************************************
  *                           E P A N E T                          *
  *                   Hydraulic and Water Quality                  *
  *                   Analysis for Pipe Networks                   *
  *                         Version 2.2                            *
  ******************************************************************
  
  Analysis begun Fri Dec  1 08:47:40 2023

   
  Node Results:
  ----------------------------------------------
                     Demand      Head  Pressure
  Node                 m3/h         m         m
  ----------------------------------------------
  3661                 0.00    428.94     50.80
  482                  0.00    428.98     82.98
  661                  0.00    428.35     98.35
  6610                 0.00    428.92      3.07
  6611                 0.00    427.37     92.37
  6612                 0.00    428.92     66.55
  6613                 0.00    428.33     73.33
  6615                 0.00    428.88     89.88
  6616                 0.00    428.61     67.61
  6617                 0.00    428.81     85.81
  6618                 0.00    428.82     80.82
  662                  0.00    428.95    100.95
  6620                 0.00    428.53    120.53
  6621                 0.00    428.53    100.53
  6622                 0.00    428.53     91.53
  6623                 0.00    428.53     77.53
  6624                 0.00    428.54     76.54
  6625                 0.00    428.40    116.40
  6626                 0.00    428.40    107.40
  6627                 0.00    428.35    107.35
  6628                 0.00    428.95     89.95
  6629                 0.00    428.95     88.95
  663                  0.00    428.92     87.92
  6630                 0.00    428.95      4.09
  6632                 0.00    428.95     88.95
  6633                 0.00    428.97     66.33
  6634                 0.00    428.98     57.98
  6635                 0.00    428.98     76.98
  6636                 0.00    428.98     72.98
  6637                 0.00    428.98     61.98
  6639                 0.00    428.92     68.92
  664                  0.00    428.84     80.84
  6640                 0.00    428.92     68.92
  6641                 0.00    428.92     70.24
  6642                 0.00    428.92     72.92
  6643                 0.00    428.92     76.92
  6644                 0.00    428.92     76.92
  6645                 0.00    428.92     78.92
  6646                 0.00    428.84     81.82
  6648                 0.00    428.84     82.83
  6649                 0.00    428.79     89.79
  665                  0.00    428.79     83.79
  666                  0.00    428.95     88.95
  6665                 0.00    428.98     63.84
  6666                 0.00    428.98     61.32
  667                  0.00    428.92     76.92
  668                  0.00    428.35     98.35
  669                  0.00    428.95     83.95
  1                    0.00    428.96     98.96
  10                   0.00    428.92     76.92
  100                  0.00    428.92     73.92
  100B                 0.00    428.92     70.92
  101                  0.00    428.33     75.33
  103                  0.00    428.33     89.33
  104                  0.00    428.33     89.33
  105                  0.00    428.33     73.33
  106                  0.00    428.33     73.33
  107                  0.00    428.88     89.88
  108                  0.00    428.88     93.32
  109                  0.00    428.88     91.88
  11B                  0.00    428.75     85.75
  110                  0.00    428.82     82.82
  111                 58.00    428.81     90.83
  112                  0.00    428.81     86.81
  113                  0.00    428.81    105.81
  114                  0.00    428.81     80.81
  115                  0.00    428.81     82.81
  116                  0.00    428.81     83.81
  117                  0.00    428.81     85.81
  118                  0.00    428.81     89.81
  119                  0.00    428.81    106.00
  12                   0.00    428.57     98.23
  121                  0.00    428.81     78.81
  122                  0.00    428.81     81.81
  123                  0.00    428.81     82.81
  125                  0.00    428.81     77.81
  126                  0.00    428.81     80.81
  127                  0.00    428.81     85.48
  128                  0.00    428.60     66.60
  129                  0.00    428.41     72.41
  130                130.00    428.35     87.27
  130B                60.00    428.37     75.37
  132                  0.00    428.35     95.35
  134                  0.00    428.35    107.35
  135                  0.00    428.35    112.35
  137                  0.00    428.35    119.35
  139                  0.00    428.35     68.35
  14                   0.00    428.33     90.33
  140                  0.00    428.35     77.35
  141                  0.00    428.35     76.35
  142                  0.00    428.35     67.35
  143                  0.00    428.35     87.38
  144                 83.00    428.49     69.49
  146                  0.00    428.44     82.44
  147                 53.00    428.19    107.19
  148                 63.00    428.42     95.42
  149                  0.00    428.40    115.19
  15                   0.00    427.37     92.37
  150                  0.00    428.40    120.33
  151                  0.00    428.40    123.16
  152                  0.00    428.40    118.38
  153                  0.00    428.40    118.40
  154                  0.00    428.53    103.53
  157                  0.00    428.53    125.53
  158A                 0.00    428.53    107.53
  158B                 0.00    428.53    107.53
  16B                  0.00    428.33     94.33
  160                  0.00    428.98     61.98
  162                  0.00    428.98     60.98
  163                  0.00    428.98     54.98
  164                  0.00    428.98     69.32
  165                  0.00    428.98     67.68
  166                  0.00    428.98     67.97
  167                  0.00    428.98     58.34
  169                  0.00    428.98     62.48
  17A                224.00    426.70     91.70
  170                  0.00    428.98     69.98
  17B                  0.00    426.53     91.53
  171                  0.00    428.98     76.98
  172                  0.00    428.98     88.98
  18B                213.00    421.08     96.08
  19                   0.00    428.97     70.97
  2                    0.00    428.95    102.95
  20                   0.00    428.94     64.94
  2002                 0.00    428.95     78.95
  2003                 0.00    428.95     78.95
  21                   0.00    428.93     66.20
  22                   0.00    428.93     67.33
  222                  0.00    428.90     78.90
  24                   0.00    428.88     84.88
  25                   0.00    428.85     83.85
  26                   0.00    428.82     80.82
  27                   0.00    428.82     78.82
  28                   0.00    428.77     80.77
  29                   0.00    428.64     72.64
  3                    0.00    428.94     88.59
  30                   0.00    428.62     67.62
  3002                 0.00    428.94     42.94
  3004                 0.00    428.94     42.94
  3005                 0.00    428.94     42.94
  3008                 0.00    428.94     43.94
  3012                 0.00    428.94     58.21
  3013                 0.00    428.94     64.01
  3016                 0.00    428.95     63.95
  3017                 0.00    428.98     46.98
  3018                 0.00    428.98     51.98
  3019                 0.00    428.94     59.55
  3020                 0.00    428.94     60.83
  3024                 0.00    428.94     64.00
  31                   0.00    428.57     70.78
  3152                 0.00    428.94     62.74
  32                   0.00    428.59     70.59
  34                  57.00    428.42     77.40
  35                   0.00    428.53     91.53
  36                   0.00    428.53    100.53
  39                   0.00    428.53    115.53
  41                   0.00    428.53    121.53
  46                   0.00    428.98     52.98
  47                   0.00    428.98     70.80
  48                   0.00    428.98     84.98
  49                   0.00    428.98     76.98
  5                    0.00    428.93     81.93
  52                   0.00    428.98     77.98
  53                   0.00    428.98     72.98
  54                   0.00    428.97     83.97
  55                   0.00    428.96     98.96
  56                   0.00    428.96     94.96
  58                   0.00    428.96     95.96
  59                   0.00    428.96     99.96
  6                    0.00    428.92     76.92
  60                   0.00    428.94     83.94
  61                   0.00    428.94     89.94
  62                   0.00    428.92     74.92
  64                   0.00    428.95     97.95
  65                   0.00    428.95     88.95
  66                   0.00    428.95     89.95
  67                   0.00    428.95     96.95
  68                   0.00    428.95     89.95
  69                   0.00    428.95     77.95
  7                    0.00    428.88     75.88
  70                   0.00    428.95     88.95
  71                   0.00    428.95     91.95
  72                   0.00    428.92     72.92
  73                   0.00    428.92     73.92
  77                   0.00    428.92     72.92
  78                   0.00    428.92     88.78
  79                   0.00    428.88     75.88
  8                    0.00    428.92     78.92
  80                   0.00    428.84     79.84
  81                   0.00    428.84     69.84
  82                   0.00    428.84     70.84
  85                   0.00    428.95     89.95
  86                   0.00    428.95     91.95
  87                   0.00    428.92     68.92
  88                   0.00    428.92     75.92
  89                   0.00    428.92     61.92
  90                   0.00    428.92     72.92
  91                   0.00    428.92     56.92
  92                   0.00    428.92     68.92
  91B                  0.00    428.92     68.92
  94                   0.00    428.79     89.79
  95                   0.00    428.79     85.79
  97                   0.00    428.79     97.79
  99                   0.00    428.92     78.92
  74                   0.00    428.92     70.21
  1074                 0.00    428.92     70.92
  11A                  0.00    428.79     85.79
  1011                 0.00    428.79     85.79
  0                 -941.00    429.00      0.00  Reservoir
   
   
  Link Results:
  ----------------------------------------------
                       Flow  Velocity  Headloss
  Link                 m3/h       m/s    /1000m
  ----------------------------------------------
  TU1                 -0.00      0.00      0.00
  TU10                 0.00      0.00      0.00
  TU100                0.00      0.00      0.00
  TU101                0.00      0.00      0.00
  TU102                0.00      0.00      0.00
  TU103                0.00      0.00      0.00
  TU104                0.00      0.00      0.00
  TU105              437.00      0.19      0.03
  TU106              437.00      0.19      0.03
  TU107                0.00      0.00      0.00
  TU108              437.00      0.19      0.03
  TU109              437.00      0.19      0.03
  TU11                -0.00      0.00      0.00
  TU110              437.00      0.19      0.03
  TU111                0.00      0.00      0.00
  TU112               -0.00      0.00      0.00
  TU113                0.00      0.00      0.00
  TU114                0.00      0.00      0.00
  TU115              437.00      0.15      0.02
  TU116              437.00      0.15      0.02
  TU117               -0.00      0.00      0.00
  TU118                0.00      0.00      0.00
  TU119              437.00      0.15      0.02
  TU12                -0.00      0.00      0.00
  TU120              437.00      0.15      0.02
  TU121               -0.00      0.00      0.00
  TU122                0.00      0.00      0.00
  TU123               -0.00      0.00      0.00
  TU124                0.00      0.00      0.00
  TU125               -0.00      0.00      0.00
  TU126               -0.00      0.00      0.00
  TU127               -0.00      0.00      0.00
  TU128                0.00      0.00      0.00
  TU129                0.00      0.00      0.00
  TU13                 0.00      0.00      0.00
  TU130               -0.00      0.00      0.00
  TU131               -0.00      0.00      0.00
  TU132                0.00      0.00      0.00
  TU133               -0.00      0.00      0.00
  TU134               -0.00      0.00      0.00
  TU135               -0.00      0.00      0.00
  TU136                0.00      0.00      0.00
  TU137                0.00      0.00      0.00
  TU138                0.00      0.00      0.00
  TU139                0.00      0.00      0.00
  TU14                -0.00      0.00      0.00
  TU140                0.00      0.00      0.00
  TU141                0.00      0.00      0.00
  TU142                0.00      0.00      0.00
  TU143               -0.00      0.00      0.00
  TU144               -0.00      0.00      0.00
  TU145               -0.00      0.00      0.00
  TU146               -0.00      0.00      0.00
  TU147               -0.00      0.00      0.00
  TU148                0.00      0.00      0.00
  TU149               -0.00      0.00      0.00
  TU15                -0.00      0.00      0.00
  TU150               -0.00      0.00      0.00
  TU151               -0.00      0.00      0.00
  TU152                0.00      0.00      0.00
  TU15301              0.00      0.00      0.00
  TU15302              0.00      0.00      0.00
  TU1074               0.00      0.00      0.00
  TU154               -0.00      0.00      0.00
  TU155                0.00      0.00      0.00
  TU156               -0.00      0.00      0.00
  TU157               -0.00      0.00      0.00
  TU158                0.00      0.00      0.00
  TU159                0.00      0.00      0.00
  TU16               941.00      0.17      0.02
  TU160                0.00      0.00      0.00
  TU161                0.00      0.00      0.00
  TU162              437.00      0.32      0.11
  TU163              437.00      0.32      0.11
  TU164              437.00      0.32      0.11
  TU166               -0.00      0.00      0.00
  TU167               -0.00      0.00      0.00
  TU168                0.00      0.00      0.00
  TU169                0.00      0.00      0.00
  TU17                 0.00      0.00      0.00
  TU170                0.00      0.00      0.00
  TU171              437.00      0.32      0.11
  TU17201              0.00      0.00      0.00
  TU17202              0.00      0.00      0.00
  TU1011A             -0.00      0.00      0.00
  TU173               -0.00      0.00      0.00
  TU174               -0.00      0.00      0.00
  TU175               -0.00      0.00      0.00
  TU176              437.00      0.43      0.24
  TU177              437.00      0.43      0.24
  TU178              437.00      0.43      0.24
  TU179              437.00      1.24      3.08
  TU18                 0.00      0.00      0.00
  TU180              437.00      1.24      3.08
  TU181              213.00      1.79     11.58
  TU182              213.00      0.97      2.63
  TU183                0.00      0.00      0.00
  TU184                0.00      0.00      0.00
  TU185               -0.00      0.00      0.00
  TU186               -0.00      0.00      0.00
  TU187               -0.00      0.00      0.00
  TU188              504.00      0.36      0.14
  TU189              504.00      0.36      0.14
  TU19                -0.00      0.00      0.00
  TU190               -0.00      0.00      0.00
  TU191                0.00      0.00      0.00
  TU192                0.00      0.00      0.00
  TU193                0.00      0.00      0.00
  TU194               -0.00      0.00      0.00
  TU195                0.00      0.00      0.00
  TU196                0.00      0.00      0.00
  TU197               -0.00      0.00      0.00
  TU198                0.00      0.00      0.00
  TU199                0.00      0.00      0.00
  TU2                  0.00      0.00      0.00
  TU20                 0.00      0.00      0.00
  TU200               -0.00      0.00      0.00
  TU201                0.00      0.00      0.00
  TU203                0.00      0.00      0.00
  TU204              504.00      0.22      0.04
  TU205              504.00      0.22      0.04
  TU21                -0.00      0.00      0.00
  TU22               504.00      0.28      0.08
  TU23               504.00      0.28      0.08
  TU24               504.00      0.28      0.08
  TU25               504.00      0.28      0.08
  TU26               446.00      0.44      0.24
  TU27               446.00      0.44      0.24
  TU28               446.00      0.44      0.24
  TU29               446.00      0.44      0.24
  TU3                  0.00      0.00      0.00
  TU30                 0.00      0.00      0.00
  TU31                -0.00      0.00      0.00
  TU32                 0.00      0.00      0.00
  TU33                 0.00      0.00      0.00
  TU34                 0.00      0.00      0.00
  TU35                 0.00      0.00      0.00
  TU36                 0.00      0.00      0.00
  TU37                 0.00      0.00      0.00
  TU38                 0.00      0.00      0.00
  TU39                -0.00      0.00      0.00
  TU4                 -0.00      0.00      0.00
  TU40                 0.00      0.00      0.00
  TU41                -0.00      0.00      0.00
  TU42                 0.00      0.00      0.00
  TU43                58.00      0.08      0.01
  TU44                58.00      0.08      0.02
  TU45                58.00      0.08      0.02
  TU46                58.00      0.08      0.01
  TU47                -0.00      0.00      0.00
  TU48                 0.00      0.00      0.00
  TU49                 0.00      0.00      0.00
  TU5                  0.00      0.00      0.00
  TU50                 0.00      0.00      0.00
  TU51                 0.00      0.00      0.00
  TU52                 0.00      0.00      0.00
  TU53                 0.00      0.00      0.00
  TU54                 0.00      0.00      0.00
  TU55                 0.00      0.00      0.00
  TU56                -0.00      0.00      0.00
  TU57                 0.00      0.00      0.00
  TU58                57.00      1.01      6.38
  TU59                57.00      0.16      0.08
  TU6                 -0.00      0.00      0.00
  TU60                -0.00      0.00      0.00
  TU61                 0.00      0.00      0.00
  TU62                -0.00      0.00      0.00
  TU63                 0.00      0.00      0.00
  TU64                 0.00      0.00      0.00
  TU65                53.00      1.09      7.99
  TU66                53.00      0.18      0.10
  TU67               116.00      0.33      0.28
  TU68               116.00      0.33      0.28
  TU69               173.00      0.24      0.11
  TU7                  0.00      0.00      0.00
  TU70               173.00      0.24      0.11
  TU71               173.00      0.24      0.11
  TU72                 0.00      0.00      0.00
  TU73               130.00      0.29      0.19
  TU74               190.00      0.42      0.37
  TU75               190.00      0.42      0.37
  TU76               273.00      0.60      0.71
  TU77               273.00      0.60      0.71
  TU78                 0.00      0.00      0.00
  TU79                 0.00      0.00      0.00
  TU8                 -0.00      0.00      0.00
  TU80                 0.00      0.00      0.00
  TU81                 0.00      0.00      0.00
  TU82                 0.00      0.00      0.00
  TU83                 0.00      0.00      0.00
  TU84                 0.00      0.00      0.00
  TU85                 0.00      0.00      0.00
  TU86                 0.00      0.00      0.00
  TU87                 0.00      0.00      0.00
  TU88                 0.00      0.00      0.00
  TU89                 0.00      0.00      0.00
  TU9                  0.00      0.00      0.00
  TU90                 0.00      0.00      0.00
  TU91                -0.00      0.00      0.00
  TU92                 0.00      0.00      0.00
  TU93                 0.00      0.00      0.00
  TU94                 0.00      0.00      0.00
  TU95                 0.00      0.00      0.00
  TU96                 0.00      0.00      0.00
  TU97                 0.00      0.00      0.00
  TU98                 0.00      0.00      0.00
  TU99                 0.00      0.00      0.00
  TU4000               0.00      0.00      0.00
   
  Analysis ended Fri Dec  1 08:47:40 2023
