  Page 1                                    Fri Dec  1 08:47:59 2023

  ******************************************************************
  *                           E P A N E T                          *
  *                   Hydraulic and Water Quality                  *
  *                   Analysis for Pipe Networks                   *
  *                         Version 2.2                            *
  ******************************************************************
  
  Analysis begun Fri Dec  1 08:47:59 2023

   
  Node Results:
  ----------------------------------------------
                     Demand      Head  Pressure
  Node                 m3/h         m         m
  ----------------------------------------------
  3661                 0.00    428.73     50.59
  482                  0.00    428.61     82.61
  661                  0.00    427.62     97.62
  6610                 0.00    426.57      2.06
  6611                 0.00    424.43     89.43
  6612                 0.00    427.84     65.47
  6613                 0.00    426.42     71.42
  6615                 0.00    428.55     89.55
  6616                 0.00    428.06     67.06
  6617                 0.00    428.05     85.05
  6618                 0.00    428.35     80.35
  662                  0.00    428.53    100.53
  6620                 0.00    426.82    118.82
  6621                 0.00    427.55     99.55
  6622                 0.00    427.71     90.71
  6623                 0.00    427.88     76.88
  6624                 0.00    427.94     75.94
  6625                 0.00    427.90    115.90
  6626                 0.00    427.90    106.90
  6627                 0.00    427.62    106.62
  6628                 0.00    428.53     89.53
  6629                 0.00    428.53     88.53
  663                  0.00    428.21     87.21
  6630                 0.00    428.53      3.67
  6632                 0.00    428.53     88.53
  6633                 0.00    428.79     66.15
  6634                 0.00    428.81     57.81
  6635                 0.00    428.70     76.70
  6636                 0.00    428.70     72.70
  6637                 0.00    428.61     61.61
  6639                 0.00    427.48     67.48
  664                  0.00    427.92     79.92
  6640                 0.00    427.17     67.17
  6641                 0.00    427.72     69.04
  6642                 0.00    427.72     71.72
  6643                 0.00    427.95     75.95
  6644                 0.00    427.99     75.99
  6645                 0.00    428.02     78.02
  6646                 0.00    425.97     78.95
  6648                 0.00    426.24     80.23
  6649                 0.00    427.75     88.75
  665                  0.00    427.75     82.75
  666                  0.00    428.53     88.53
  6665                 0.00    427.54     62.40
  6666                 0.00    428.43     60.77
  667                  0.00    427.99     75.99
  668                  0.00    427.61     97.61
  669                  0.00    428.53     83.53
  1                    0.00    428.67     98.67
  10                  74.00    427.47     75.47
  100                  0.00    427.72     72.72
  100B                82.00    426.69     68.69
  101                  0.00    426.42     73.42
  103                  0.00    426.57     87.57
  104                  0.00    426.57     87.57
  105                  0.00    426.42     71.42
  106                 52.00    426.35     71.35
  107                  0.00    428.55     89.55
  108                  0.00    428.55     92.99
  109                  0.00    428.55     91.55
  11B                 87.00    427.64     84.64
  110                 69.00    428.31     82.31
  111                 64.00    428.23     90.25
  112                  0.00    428.27     86.27
  113                  0.00    428.16    105.16
  114                  0.00    428.05     80.05
  115                  0.00    428.05     82.05
  116                  0.00    428.05     83.05
  117                  0.00    428.05     85.05
  118                  0.00    428.05     89.05
  119                  0.00    428.05    105.24
  12                   0.00    427.18     96.84
  121                 43.00    428.05     78.05
  122                  0.00    428.05     81.05
  123                  0.00    428.05     82.05
  125                  0.00    428.05     77.05
  126                  0.00    427.67     79.67
  127                131.00    426.17     82.84
  128                  0.00    428.04     66.04
  129                  0.00    427.75     71.75
  130                126.00    427.63     86.55
  130B                68.00    427.68     74.68
  132                  0.00    427.61     94.61
  134                  0.00    427.62    106.62
  135                  0.00    427.62    111.62
  137                  0.00    427.62    118.62
  139                 60.00    427.25     67.25
  14                   0.00    426.57     88.57
  140                  0.00    427.45     76.45
  141                  0.00    427.43     75.43
  142                  0.00    427.25     66.25
  143                  0.00    427.61     86.64
  144                 86.00    427.87     68.87
  146                  0.00    427.92     81.92
  147                 42.00    427.77    106.77
  148                  0.00    427.92     94.92
  149                  0.00    427.90    114.69
  15                 235.00    423.70     88.70
  150                  0.00    427.90    119.83
  151                  0.00    427.90    122.66
  152                  0.00    427.90    117.88
  153                  0.00    427.90    117.90
  154                  0.00    427.47    102.47
  157                  0.00    426.82    123.82
  158A                69.00    416.58     95.58
  158B                69.00    416.56     95.56
  16B                  0.00    426.57     92.57
  160                  0.00    428.59     61.59
  162                 63.00    428.49     60.49
  163                  0.00    428.43     54.43
  164                  0.00    428.28     68.62
  165                  0.00    427.67     66.37
  166                 89.00    427.67     66.66
  167                 94.00    427.38     56.74
  169                  0.00    428.20     61.70
  17A                228.00    423.76     88.76
  170                105.00    428.64     69.64
  17B                  0.00    423.58     88.58
  171                  0.00    428.70     76.70
  172                  0.00    428.70     88.70
  18B                211.00    418.23     93.23
  19                   0.00    428.79     70.79
  2                    0.00    428.56    102.56
  20                   0.00    428.73     64.73
  2002                 0.00    428.53     78.53
  2003                 0.00    428.53     78.53
  21                   0.00    428.69     65.96
  22                   0.00    428.69     67.09
  222                 62.00    428.60     78.60
  24                   0.00    428.55     84.55
  25                   0.00    428.47     83.47
  26                   0.00    428.35     80.35
  27                   0.00    428.39     78.39
  28                   0.00    428.31     80.31
  29                   0.00    428.09     72.09
  3                    0.00    428.39     88.04
  30                   0.00    428.07     67.07
  3002                 0.00    428.73     42.73
  3004                 0.00    428.73     42.73
  3005                 0.00    428.73     42.73
  3008                 0.00    428.73     43.73
  3012                 0.00    428.73     58.00
  3013                 0.00    428.73     63.80
  3016                 0.00    428.77     63.77
  3017                 0.00    428.86     46.86
  3018                 0.00    428.76     51.76
  3019                 0.00    428.73     59.34
  3020                 0.00    428.73     60.62
  3024                 0.00    428.73     63.79
  31                   0.00    427.98     70.19
  3152                 0.00    428.73     62.53
  32                   0.00    428.01     70.01
  34                  53.00    427.78     76.76
  35                   0.00    427.71     90.71
  36                   0.00    427.55     99.55
  39                   0.00    427.23    114.23
  41                   0.00    426.59    119.59
  46                   0.00    428.76     52.76
  47                   0.00    428.20     70.02
  48                   0.00    428.61     84.61
  49                   0.00    428.61     76.61
  5                    0.00    428.29     81.29
  52                   0.00    428.61     77.61
  53                   0.00    428.81     72.81
  54                   0.00    428.75     83.75
  55                   0.00    428.67     98.67
  56                   0.00    428.67     94.67
  58                   0.00    428.67     95.67
  59                   0.00    428.67     99.67
  6                    0.00    427.99     75.99
  60                   0.00    426.09     81.09
  61                  79.00    424.99     85.99
  62                  94.00    424.34     70.34
  64                   0.00    428.53     97.53
  65                   0.00    428.53     88.53
  66                   0.00    428.53     89.53
  67                   0.00    428.53     96.53
  68                   0.00    428.53     89.53
  69                   0.00    428.53     77.53
  7                    0.00    428.05     75.05
  70                   0.00    428.53     88.53
  71                   0.00    428.53     91.53
  72                   0.00    427.68     71.68
  73                   0.00    427.94     72.94
  77                 127.00    423.68     67.68
  78                   0.00    427.68     87.54
  79                   0.00    428.04     75.04
  8                    0.00    428.02     78.02
  80                   0.00    427.87     78.87
  81                   0.00    426.24     67.24
  82                 130.00    425.19     67.19
  85                   0.00    428.53     89.53
  86                   0.00    428.53     91.53
  87                   0.00    427.87     67.87
  88                   0.00    427.84     74.84
  89                   0.00    427.78     60.78
  90                   0.00    427.72     71.72
  91                   0.00    427.48     55.48
  92                   0.00    426.57     66.57
  91B                163.00    426.29     66.29
  94                   0.00    427.75     88.75
  95                   0.00    427.75     84.75
  97                   0.00    427.75     96.75
  99                   0.00    427.78     77.78
  74                   0.00    427.94     69.23
  1074                 0.00    427.94     69.94
  11A                  0.00    427.75     84.75
  1011                 0.00    427.75     84.75
  0                -2855.00    429.00      0.00  Reservoir
   
   
  Link Results:
  ----------------------------------------------
                       Flow  Velocity  Headloss
  Link                 m3/h       m/s    /1000m
  ----------------------------------------------
  TU1                 -0.00      0.00      0.00
  TU10                 0.00      0.00      0.00
  TU100                0.00      0.00      0.00
  TU101                0.00      0.00      0.00
  TU102                0.00      0.00      0.00
  TU103                0.00      0.00      0.00
  TU104                0.00      0.00      0.00
  TU105             1483.00      0.65      0.31
  TU106             1483.00      0.65      0.31
  TU107                0.00      0.00      0.00
  TU108             1562.00      0.68      0.34
  TU109             1562.00      0.68      0.34
  TU11                52.00      0.24      0.21
  TU110             1562.00      0.68      0.34
  TU111                0.00      0.00      0.00
  TU112               -0.00      0.00      0.00
  TU113                0.00      0.00      0.00
  TU114                0.00      0.00      0.00
  TU115             1562.00      0.55      0.20
  TU116             1562.00      0.55      0.20
  TU117               -0.00      0.00      0.00
  TU118                0.00      0.00      0.00
  TU119             1562.00      0.55      0.20
  TU12                 0.00      0.00      0.00
  TU120             1562.00      0.55      0.20
  TU121                0.00      0.00      0.00
  TU122                0.00      0.00      0.00
  TU123               -0.00      0.00      0.00
  TU124                0.00      0.00      0.00
  TU125               -0.00      0.00      0.00
  TU126               -0.00      0.00      0.00
  TU127               -0.00      0.00      0.00
  TU128               94.00      0.41      0.53
  TU129               94.00      0.41      0.53
  TU13                 0.00      0.00      0.00
  TU130               94.00      0.41      0.53
  TU131              183.00      0.80      1.77
  TU132                0.00      0.00      0.00
  TU133              183.00      0.80      1.77
  TU134              163.00      1.76     12.99
  TU135              246.00      0.54      0.59
  TU136              246.00      0.54      0.59
  TU137              246.00      0.35      0.20
  TU138              351.00      0.50      0.38
  TU139              351.00      0.34      0.16
  TU14                52.00      0.11      0.04
  TU140              351.00      0.34      0.16
  TU141               94.00      1.58     13.91
  TU142              221.00      0.60      0.78
  TU143               -0.00      0.00      0.00
  TU144               82.00      0.89      3.69
  TU145              163.00      1.13      4.40
  TU146              245.00      1.07      3.01
  TU147              245.00      0.66      0.94
  TU148                0.00      0.00      0.00
  TU149               -0.00      0.00      0.00
  TU15                -0.00      0.00      0.00
  TU150               -0.00      0.00      0.00
  TU151              245.00      0.35      0.20
  TU152               -0.00      0.00      0.00
  TU15301            245.00      0.35      0.20
  TU15302            245.00      0.35      0.20
  TU1074               0.00      0.00      0.00
  TU154              245.00      0.24      0.08
  TU155               74.00      1.24      8.97
  TU156              319.00      0.31      0.13
  TU157              540.00      0.53      0.35
  TU158                0.00      0.00      0.00
  TU159              540.00      0.53      0.35
  TU16              2855.00      0.52      0.12
  TU160                0.00      0.00      0.00
  TU161              540.00      0.53      0.35
  TU162              943.00      0.68      0.45
  TU163              943.00      0.68      0.45
  TU164              943.00      0.68      0.46
  TU166               -0.00      0.00      0.00
  TU167              130.00      1.71     13.85
  TU168              130.00      1.71     13.85
  TU169              130.00      1.09      4.67
  TU17                -0.00      0.00      0.00
  TU170              130.00      0.59      1.07
  TU171              813.00      0.59      0.35
  TU17201             -0.00      0.00      0.00
  TU17202              0.00      0.00      0.00
  TU1011A             -0.00      0.00      0.00
  TU173               -0.00      0.00      0.00
  TU174               -0.00      0.00      0.00
  TU175               -0.00      0.00      0.00
  TU176              726.00      0.71      0.59
  TU177              813.00      0.80      0.73
  TU178              726.00      0.71      0.59
  TU179              674.00      1.91      6.85
  TU18                 0.00      0.00      0.00
  TU180              439.00      1.25      3.10
  TU181              211.00      1.78     11.38
  TU182              211.00      0.97      2.58
  TU183               79.00      0.90      3.95
  TU184                0.00      0.00      0.00
  TU185              174.00      0.38      0.31
  TU186              183.00      0.49      0.56
  TU187              183.00      0.40      0.34
  TU188              880.00      0.64      0.40
  TU189              880.00      0.64      0.40
  TU19                 0.00      0.00      0.00
  TU190               -0.00      0.00      0.00
  TU191               79.00      1.41     11.59
  TU192                0.00      0.00      0.00
  TU193                0.00      0.00      0.00
  TU194               -0.00      0.00      0.00
  TU195                0.00      0.00      0.00
  TU196                0.00      0.00      0.00
  TU197               -0.00      0.00      0.00
  TU198                0.00      0.00      0.00
  TU199                0.00      0.00      0.00
  TU2                235.00      2.68     29.34
  TU20                 0.00      0.00      0.00
  TU200               -0.00      0.00      0.00
  TU201                0.00      0.00      0.00
  TU203                0.00      0.00      0.00
  TU204              942.00      0.41      0.13
  TU205              942.00      0.41      0.13
  TU21                -0.00      0.00      0.00
  TU22               880.00      0.49      0.21
  TU23               942.00      0.52      0.24
  TU24               942.00      0.52      0.24
  TU25               942.00      0.52      0.24
  TU26               573.00      0.56      0.39
  TU27               573.00      0.56      0.39
  TU28               573.00      0.56      0.39
  TU29               573.00      0.56      0.39
  TU3                  0.00      0.00      0.00
  TU30                 0.00      0.00      0.00
  TU31                -0.00      0.00      0.00
  TU32                 0.00      0.00      0.00
  TU33                 0.00      0.00      0.00
  TU34                 0.00      0.00      0.00
  TU35                -0.00      0.00      0.00
  TU36                 0.00      0.00      0.00
  TU37                -0.00      0.00      0.00
  TU38                 0.00      0.00      0.00
  TU39               131.00      1.50      9.96
  TU4                245.00      0.35      0.20
  TU40               131.00      0.96      3.36
  TU41               131.00      0.29      0.19
  TU42                 0.00      0.00      0.00
  TU43               238.00      0.34      0.19
  TU44               238.00      0.34      0.19
  TU45               307.00      0.43      0.30
  TU46               307.00      0.43      0.30
  TU47                -0.00      0.00      0.00
  TU48               138.00      1.81     15.47
  TU49               138.00      1.16      5.21
  TU5                245.00      0.35      0.20
  TU50                 0.00      0.00      0.00
  TU51               138.00      0.73      1.71
  TU52               138.00      0.46      0.54
  TU53               138.00      0.46      0.54
  TU54                 0.00      0.00      0.00
  TU55               138.00      0.46      0.54
  TU56                 0.00      0.00      0.00
  TU57               138.00      0.39      0.38
  TU58                53.00      0.94      5.59
  TU59               191.00      0.54      0.68
  TU6                174.00      0.25      0.11
  TU60                -0.00      0.00      0.00
  TU61                 0.00      0.00      0.00
  TU62                -0.00      0.00      0.00
  TU63                 0.00      0.00      0.00
  TU64                 0.00      0.00      0.00
  TU65                42.00      0.87      5.23
  TU66                42.00      0.14      0.06
  TU67                42.00      0.12      0.05
  TU68                42.00      0.12      0.04
  TU69               233.00      0.33      0.18
  TU7                127.00      2.14     24.23
  TU70               233.00      0.33      0.18
  TU71               233.00      0.33      0.18
  TU72                60.00      0.13      0.05
  TU73               186.00      0.41      0.35
  TU74               254.00      0.56      0.62
  TU75               254.00      0.56      0.62
  TU76               340.00      0.75      1.06
  TU77               340.00      0.75      1.06
  TU78                 0.00      0.00      0.00
  TU79                 0.00      0.00      0.00
  TU8                  0.00      0.00      0.00
  TU80                 0.00      0.00      0.00
  TU81                 0.00      0.00      0.00
  TU82                 0.00      0.00      0.00
  TU83                 0.00      0.00      0.00
  TU84                 0.00      0.00      0.00
  TU85                60.00      0.44      0.82
  TU86                60.00      0.27      0.27
  TU87                60.00      0.32      0.38
  TU88                60.00      0.13      0.05
  TU89                 0.00      0.00      0.00
  TU9                 52.00      0.87      4.72
  TU90                 0.00      0.00      0.00
  TU91                -0.00      0.00      0.00
  TU92                 0.00      0.00      0.00
  TU93                 0.00      0.00      0.00
  TU94                 0.00      0.00      0.00
  TU95                 0.00      0.00      0.00
  TU96                 0.00      0.00      0.00
  TU97                 0.00      0.00      0.00
  TU98                 0.00      0.00      0.00
  TU99                 0.00      0.00      0.00
  TU4000              69.00      0.91      4.35
   
  Analysis ended Fri Dec  1 08:47:59 2023
