  Page 1                                    Fri Dec  1 08:54:37 2023

  ******************************************************************
  *                           E P A N E T                          *
  *                   Hydraulic and Water Quality                  *
  *                   Analysis for Pipe Networks                   *
  *                         Version 2.2                            *
  ******************************************************************
  
  Analysis begun Fri Dec  1 08:54:37 2023

   
  Node Results:
  ----------------------------------------------
                     Demand      Head  Pressure
  Node                 m3/h         m         m
  ----------------------------------------------
  3661                 0.00    428.46     50.32
  482                  0.00    428.30     82.30
  661                  0.00    427.64     97.64
  6610                 0.00    423.83     -1.53
  6611                 0.00    425.92     90.92
  6612                 0.00    425.69     63.32
  6613                 0.00    423.85     68.85
  6615                 0.00    428.22     89.22
  6616                 0.00    427.79     66.79
  6617                 0.00    424.91     81.91
  6618                 0.00    427.91     79.91
  662                  0.00    428.01    100.01
  6620                 0.00    426.17    118.17
  6621                 0.00    427.16     99.16
  6622                 0.00    427.38     90.38
  6623                 0.00    427.61     76.61
  6624                 0.00    427.66     75.66
  6625                 0.00    427.43    115.43
  6626                 0.00    427.56    106.56
  6627                 0.00    427.25    106.25
  6628                 0.00    428.01     89.01
  6629                 0.00    428.01     88.01
  663                  0.00    427.43     86.43
  6630                 0.00    428.01      3.15
  6632                 0.00    428.01     88.01
  6633                 0.00    428.52     65.88
  6634                 0.00    428.58     57.58
  6635                 0.00    428.43     76.43
  6636                 0.00    428.43     72.43
  6637                 0.00    428.30     61.30
  6639                 0.00    424.60     64.60
  664                  0.00    427.08     79.08
  6640                 0.00    424.45     64.45
  6641                 0.00    425.06     66.38
  6642                 0.00    425.00     69.00
  6643                 0.00    426.49     74.49
  6644                 0.00    426.72     74.72
  6645                 0.00    426.81     76.81
  6646                 0.00    426.51     79.49
  6648                 0.00    426.51     80.50
  6649                 0.00    425.40     86.40
  665                  0.00    426.85     81.85
  666                  0.00    428.01     88.01
  6665                 0.00    427.32     62.18
  6666                 0.00    427.95     60.29
  667                  0.00    426.69     74.69
  668                  0.00    427.64     97.64
  669                  0.00    428.01     83.01
  1                   74.00    428.24     98.24
  10                  61.00    426.15     74.15
  100                113.00    424.97     69.97
  100B                 0.00    424.45     66.45
  101                 96.00    423.57     70.56
  103                 49.00    425.80     86.80
  104                  0.00    425.80     86.80
  105                 83.00    423.82     68.82
  106                 52.00    423.77     68.77
  107                  0.00    428.22     89.22
  108                  0.00    428.22     92.66
  109                  0.00    428.22     91.22
  11B                113.00    426.78     83.78
  110                 68.00    427.82     81.82
  111                 58.00    427.54     89.56
  112                  0.00    427.69     85.69
  113                  0.00    427.24    104.24
  114                 51.00    426.21     78.21
  115                 56.00    425.39     79.39
  116                  0.00    425.81     80.81
  117                 81.00    424.80     81.80
  118                 81.00    423.75     84.75
  119                  0.00    423.75    100.94
  12                   0.00    426.51     96.17
  121                 61.00    426.76     76.76
  122                 68.00    421.83     74.83
  123                  0.00    425.25     79.25
  125                  0.00    426.72     75.72
  126                  0.00    426.72     78.72
  127                  0.00    426.72     83.39
  128                 63.00    427.78     65.78
  129                  0.00    427.72     71.72
  130                  0.00    427.67     86.59
  130B                 0.00    427.70     74.70
  132                  0.00    425.70     92.70
  134                 63.00    426.93    105.93
  135                  0.00    427.25    111.25
  137                  0.00    427.25    118.25
  139                  0.00    427.64     67.64
  14                  55.00    426.07     88.07
  140                  0.00    427.64     76.64
  141                  0.00    427.64     75.64
  142                  0.00    427.64     66.64
  143                 62.00    422.85     81.88
  144                  0.00    427.75     68.75
  146                  0.00    427.61     81.61
  147                  0.00    427.56    106.56
  148                  0.00    427.60     94.60
  149                  0.00    427.43    114.22
  15                 203.00    425.36     90.36
  150                  0.00    427.28    119.21
  151                  0.00    426.96    121.72
  152                 78.00    424.53    114.51
  153                  0.00    425.36    115.36
  154                  0.00    427.05    102.05
  157                  0.00    426.17    123.17
  158A                82.00    412.08     91.08
  158B                82.00    412.05     91.05
  16B                  0.00    426.16     92.16
  160                  0.00    428.27     61.27
  162                  0.00    428.12     60.12
  163                 97.00    427.61     53.61
  164                  0.00    427.76     68.10
  165                 59.00    427.32     66.02
  166                 82.00    427.32     66.31
  167                  0.00    427.32     56.68
  169                 73.00    427.51     61.01
  17A                  0.00    425.92     90.92
  170                100.00    428.35     69.35
  17B                  0.00    425.92     90.92
  171                  0.00    428.43     76.43
  172                  0.00    428.43     88.43
  18B                  0.00    425.92    100.92
  19                   0.00    428.52     70.52
  2                    0.00    428.06    102.06
  20                  84.00    428.46     64.46
  2002                 0.00    428.01     78.01
  2003                 0.00    428.01     78.01
  21                   0.00    428.40     65.67
  22                  75.00    428.40     66.80
  222                 71.00    428.28     78.28
  24                   0.00    428.22     84.22
  25                   0.00    428.12     83.12
  26                   0.00    427.91     79.91
  27                   0.00    428.02     78.02
  28                   0.00    427.96     79.96
  29                  47.00    427.81     71.81
  3                    0.00    427.77     87.42
  30                   0.00    427.79     66.79
  3002                 0.00    428.46     42.46
  3004                 0.00    428.46     42.46
  3005                 0.00    428.46     42.46
  3008                 0.00    428.46     43.46
  3012                 0.00    428.46     57.73
  3013                 0.00    428.46     63.53
  3016               105.00    428.52     63.52
  3017                 0.00    428.70     46.70
  3018                76.00    428.22     51.22
  3019                 0.00    428.46     59.07
  3020                 0.00    428.46     60.35
  3024                 0.00    428.46     63.52
  31                   0.00    427.70     69.91
  3152                 0.00    428.46     62.26
  32                   0.00    427.74     69.74
  34                   0.00    427.61     76.59
  35                   0.00    427.38     90.38
  36                   0.00    427.16     99.16
  39                   0.00    426.73    113.73
  41                   0.00    425.85    118.85
  46                   0.00    428.51     52.51
  47                   0.00    427.65     69.47
  48                   0.00    428.30     84.30
  49                   0.00    428.30     76.30
  5                    0.00    427.59     80.59
  52                   0.00    428.30     77.30
  53                 114.00    426.52     70.52
  54                   0.00    428.42     83.42
  55                   0.00    427.25     97.25
  56                   0.00    426.76     92.76
  58                 117.00    422.52     89.52
  59                 164.00    418.77     89.77
  6                   61.00    426.50     74.50
  60                   0.00    427.77     82.77
  61                   0.00    427.77     88.77
  62                   0.00    426.59     72.59
  64                   0.00    428.01     97.01
  65                   0.00    428.01     88.01
  66                   0.00    428.01     89.01
  67                   0.00    428.01     96.01
  68                   0.00    428.01     89.01
  69                   0.00    428.01     77.01
  7                    0.00    427.24     74.24
  70                   0.00    428.01     88.01
  71                   0.00    428.01     91.01
  72                   0.00    426.59     70.59
  73                   0.00    426.45     71.45
  77                 121.00    422.94     66.94
  78                   0.00    426.59     86.45
  79                   0.00    427.23     74.23
  8                   51.00    426.66     76.66
  80                   0.00    427.06     78.06
  81                  72.00    424.66     65.66
  82                   0.00    426.51     68.51
  85                   0.00    428.01     89.01
  86                   0.00    428.01     91.01
  87                   0.00    425.92     65.92
  88                  57.00    421.33     68.33
  89                  78.00    425.25     58.25
  90                   0.00    425.00     69.00
  91                 187.00    424.14     52.14
  92                  62.00    423.78     63.78
  91B                104.00    423.70     63.70
  94                  71.00    424.87     85.87
  95                   0.00    423.35     80.35
  97                 145.00    415.15     84.15
  99                 150.00    422.45     72.45
  74                   0.00    426.40     67.69
  1074                 0.00    426.40     68.40
  11A                104.00    421.84     78.84
  1011                 0.00    421.97     78.97
  0                -4380.00    429.00      0.00  Reservoir
   
   
  Link Results:
  ----------------------------------------------
                       Flow  Velocity  Headloss
  Link                 m3/h       m/s    /1000m
  ----------------------------------------------
  TU1                 62.00      0.68      2.28
  TU10                83.00      0.90      3.77
  TU100                0.00      0.00      0.00
  TU101                0.00      0.00      0.00
  TU102                0.00      0.00      0.00
  TU103                0.00      0.00      0.00
  TU104                0.00      0.00      0.00
  TU105             2088.00      0.91      0.58
  TU106             2088.00      0.91      0.58
  TU107                0.00      0.00      0.00
  TU108             2088.00      0.91      0.58
  TU109             2088.00      0.91      0.58
  TU11               231.00      1.06      3.05
  TU110             2088.00      0.91      0.58
  TU111              164.00      2.16     21.28
  TU112              281.00      2.05     13.69
  TU113              281.00      1.49      6.29
  TU114              281.00      1.49      6.29
  TU115             2443.00      0.86      0.46
  TU116             2443.00      0.86      0.46
  TU117              114.00      1.23      6.73
  TU118                0.00      0.00      0.00
  TU119             2443.00      0.86      0.46
  TU12                 0.00      0.00      0.00
  TU120             2557.00      0.90      0.50
  TU121               -0.00      0.00      0.00
  TU122                0.00      0.00      0.00
  TU123               -0.00      0.00      0.00
  TU124                0.00      0.00      0.00
  TU125               -0.00      0.00      0.00
  TU126               -0.00      0.00      0.00
  TU127               -0.00      0.00      0.00
  TU128                0.00      0.00      0.00
  TU129                0.00      0.00      0.00
  TU13                49.00      0.36      0.57
  TU130               59.00      0.26      0.23
  TU131              141.00      0.61      1.10
  TU132               73.00      0.32      0.33
  TU133              214.00      0.93      2.35
  TU134              104.00      1.12      5.69
  TU135              311.00      0.69      0.90
  TU136              311.00      0.69      0.90
  TU137              311.00      0.44      0.31
  TU138              411.00      0.58      0.51
  TU139              411.00      0.40      0.21
  TU14               335.00      0.74      1.03
  TU140              487.00      0.48      0.29
  TU141                0.00      0.00      0.00
  TU142              121.00      0.33      0.26
  TU143              187.00      0.81      1.84
  TU144               -0.00      0.00      0.00
  TU145              166.00      1.15      4.55
  TU146              166.00      0.72      1.48
  TU147              353.00      0.95      1.84
  TU148               -0.00      0.00      0.00
  TU149              113.00      0.78      2.26
  TU15                -0.00      0.00      0.00
  TU150              113.00      0.78      2.26
  TU151              466.00      0.66      0.64
  TU152              150.00      1.71     12.78
  TU15301            751.00      1.06      1.53
  TU15302            751.00      1.06      1.53
  TU1074               0.00      0.00      0.00
  TU154              751.00      0.74      0.63
  TU155               61.00      1.03      6.31
  TU156              812.00      0.80      0.73
  TU157              933.00      0.92      0.94
  TU158               61.00      1.09      7.22
  TU159              994.00      0.98      1.06
  TU16              4380.00      0.79      0.26
  TU160               51.00      0.91      5.22
  TU161             1045.00      1.03      1.16
  TU162             1043.00      0.75      0.55
  TU163             1043.00      0.75      0.55
  TU164             1043.00      0.75      0.55
  TU166               72.00      1.48     13.99
  TU167               -0.00      0.00      0.00
  TU168                0.00      0.00      0.00
  TU169               72.00      0.61      1.60
  TU17                -0.00      0.00      0.00
  TU170               72.00      0.33      0.37
  TU171              971.00      0.70      0.48
  TU17201            249.00      3.27     46.27
  TU17202            145.00      1.91     16.95
  TU1011A            104.00      1.37      9.19
  TU173              249.00      1.82     10.95
  TU174               71.00      1.26      9.53
  TU175              320.00      1.46      5.55
  TU176              538.00      0.53      0.34
  TU177              651.00      0.64      0.49
  TU178              538.00      0.53      0.34
  TU179              203.00      0.58      0.76
  TU18                 0.00      0.00      0.00
  TU180                0.00      0.00      0.00
  TU181                0.00      0.00      0.00
  TU182                0.00      0.00      0.00
  TU183                0.00      0.00      0.00
  TU184                0.00      0.00      0.00
  TU185              398.00      0.88      1.41
  TU186              214.00      0.58      0.74
  TU187              311.00      0.69      0.90
  TU188             1001.00      0.72      0.51
  TU189             1001.00      0.72      0.51
  TU19                 0.00      0.00      0.00
  TU190               78.00      1.03      5.43
  TU191                0.00      0.00      0.00
  TU192                0.00      0.00      0.00
  TU193                0.00      0.00      0.00
  TU194               -0.00      0.00      0.00
  TU195                0.00      0.00      0.00
  TU196                0.00      0.00      0.00
  TU197                0.00      0.00      0.00
  TU198                0.00      0.00      0.00
  TU199                0.00      0.00      0.00
  TU2                203.00      2.32     22.35
  TU20                 0.00      0.00      0.00
  TU200               -0.00      0.00      0.00
  TU201                0.00      0.00      0.00
  TU203               76.00      1.28      9.42
  TU204             1231.00      0.54      0.22
  TU205             1336.00      0.58      0.25
  TU21                78.00      0.66      1.84
  TU22              1001.00      0.55      0.27
  TU23              1072.00      0.59      0.30
  TU24              1147.00      0.63      0.34
  TU25              1147.00      0.63      0.34
  TU26               430.00      0.42      0.23
  TU27               430.00      0.42      0.23
  TU28               477.00      0.47      0.28
  TU29               477.00      0.47      0.28
  TU3                 57.00      0.96      5.57
  TU30                 0.00      0.00      0.00
  TU31                81.00      0.92      4.13
  TU32                81.00      0.92      4.13
  TU33               162.00      0.74      1.59
  TU34               218.00      1.00      2.74
  TU35                68.00      1.21      8.81
  TU36                68.00      0.78      3.01
  TU37               286.00      0.81      1.41
  TU38               337.00      0.96      1.91
  TU39                -0.00      0.00      0.00
  TU4                694.00      0.98      1.33
  TU40                -0.00      0.00      0.00
  TU41               337.00      0.74      1.04
  TU42                97.00      0.67      1.71
  TU43               456.00      0.65      0.61
  TU44               456.00      0.65      0.61
  TU45               524.00      0.74      0.79
  TU46               524.00      0.74      0.79
  TU47                -0.00      0.00      0.00
  TU48               164.00      2.16     21.28
  TU49               164.00      1.38      7.16
  TU5                751.00      1.06      1.53
  TU50                 0.00      0.00      0.00
  TU51               164.00      0.87      2.34
  TU52               164.00      0.54      0.74
  TU53               164.00      0.54      0.74
  TU54                 0.00      0.00      0.00
  TU55               164.00      0.54      0.74
  TU56                 0.00      0.00      0.00
  TU57               164.00      0.47      0.51
  TU58                 0.00      0.00      0.00
  TU59               164.00      0.47      0.51
  TU6                398.00      0.56      0.48
  TU60                78.00      1.61     16.20
  TU61                 0.00      0.00      0.00
  TU62                78.00      0.41      0.61
  TU63                 0.00      0.00      0.00
  TU64                78.00      0.41      0.61
  TU65                 0.00      0.00      0.00
  TU66                78.00      0.26      0.19
  TU67                78.00      0.22      0.13
  TU68                78.00      0.22      0.13
  TU69               242.00      0.34      0.19
  TU7                121.00      2.04     22.15
  TU70               242.00      0.34      0.19
  TU71               242.00      0.34      0.19
  TU72               125.00      0.28      0.17
  TU73               125.00      0.28      0.17
  TU74               125.00      0.28      0.17
  TU75               125.00      0.28      0.17
  TU76               125.00      0.28      0.17
  TU77               188.00      0.42      0.36
  TU78                 0.00      0.00      0.00
  TU79                 0.00      0.00      0.00
  TU8                 96.00      1.04      4.92
  TU80                63.00      1.30     10.95
  TU81                63.00      0.53      1.25
  TU82                62.00      1.10      7.44
  TU83                62.00      0.82      3.58
  TU84                 0.00      0.00      0.00
  TU85                 0.00      0.00      0.00
  TU86                 0.00      0.00      0.00
  TU87                 0.00      0.00      0.00
  TU88                62.00      0.14      0.05
  TU89                 0.00      0.00      0.00
  TU9                 52.00      0.87      4.72
  TU90                 0.00      0.00      0.00
  TU91                -0.00      0.00      0.00
  TU92                -0.00      0.00      0.00
  TU93                 0.00      0.00      0.00
  TU94                 0.00      0.00      0.00
  TU95                 0.00      0.00      0.00
  TU96                 0.00      0.00      0.00
  TU97                 0.00      0.00      0.00
  TU98                 0.00      0.00      0.00
  TU99                 0.00      0.00      0.00
  TU4000              82.00      1.08      5.95
   
  Analysis ended Fri Dec  1 08:54:37 2023
