  Page 1                                    Fri Dec  1 08:58:33 2023

  ******************************************************************
  *                           E P A N E T                          *
  *                   Hydraulic and Water Quality                  *
  *                   Analysis for Pipe Networks                   *
  *                         Version 2.2                            *
  ******************************************************************
  
  Analysis begun Fri Dec  1 08:58:33 2023

   
  Node Results:
  ----------------------------------------------
                     Demand      Head  Pressure
  Node                 m3/h         m         m
  ----------------------------------------------
  3661                 0.00    428.49     50.35
  482                  0.00    428.06     82.06
  661                  0.00    426.80     96.80
  6610                 0.00    425.31      0.08
  6611                 0.00    427.74     92.74
  6612                 0.00    426.95     64.58
  6613                 0.00    427.02     72.02
  6615                 0.00    428.16     89.16
  6616                 0.00    427.22     66.22
  6617                 0.00    427.28     84.28
  6618                 0.00    427.83     79.83
  662                  0.00    428.32    100.32
  6620                 0.00    425.98    117.98
  6621                 0.00    426.54     98.54
  6622                 0.00    426.67     89.67
  6623                 0.00    426.80     75.80
  6624                 0.00    426.85     74.85
  6625                 0.00    426.08    114.08
  6626                 0.00    426.30    105.30
  6627                 0.00    426.49    105.49
  6628                 0.00    425.94     86.94
  6629                 0.00    427.92     87.92
  663                  0.00    427.99     86.99
  6630                 0.00    428.14      3.28
  6632                 0.00    428.25     88.25
  6633                 0.00    428.65     66.01
  6634                 0.00    428.69     57.69
  6635                 0.00    428.56     76.56
  6636                 0.00    428.56     72.56
  6637                 0.00    428.44     61.44
  6639                 0.00    426.48     66.48
  664                  0.00    427.85     79.85
  6640                 0.00    426.25     66.25
  6641                 0.00    426.76     68.08
  6642                 0.00    426.76     70.76
  6643                 0.00    427.26     75.26
  6644                 0.00    427.43     75.43
  6645                 0.00    427.51     77.51
  6646                 0.00    427.12     80.10
  6648                 0.00    427.12     81.11
  6649                 0.00    427.05     88.05
  665                  0.00    427.80     82.80
  666                  0.00    428.14     88.14
  6665                 0.00    428.07     62.93
  6666                 0.00    428.30     60.64
  667                  0.00    427.41     75.41
  668                  0.00    426.80     96.80
  669                  0.00    427.75     82.75
  1                   75.00    428.49     98.49
  10                   0.00    427.26     75.26
  100                  0.00    426.76     71.76
  100B                 0.00    426.25     68.25
  101                 66.00    426.88     73.88
  103                  0.00    427.73     88.73
  104                  0.00    427.73     88.73
  105                 57.00    427.01     72.01
  106                  0.00    427.02     72.02
  107                  0.00    428.16     89.16
  108                  0.00    428.16     92.60
  109                  0.00    428.16     91.16
  11B                 92.00    427.79     84.79
  110                 69.00    427.79     81.79
  111                  0.00    427.69     89.71
  112                  0.00    427.75     85.75
  113                  0.00    427.56    104.56
  114                  0.00    427.30     79.30
  115                  0.00    427.28     81.28
  116                  0.00    427.28     82.28
  117                  0.00    427.28     84.28
  118                  0.00    427.28     88.28
  119                  0.00    427.28    104.47
  12                   0.00    427.77     97.43
  121                  0.00    427.34     77.34
  122                 52.00    424.84     77.84
  123                  0.00    426.94     80.94
  125                  0.00    427.32     76.32
  126                 59.00    426.47     78.47
  127                146.00    424.64     81.31
  128                  0.00    427.20     65.20
  129                  0.00    426.93     70.93
  130                134.00    426.80     85.72
  130B                62.00    426.86     73.86
  132                  0.00    426.80     93.80
  134                  0.00    426.49    105.49
  135                 55.00    425.95    109.95
  137                  0.00    425.95    116.95
  139                  0.00    426.80     66.80
  14                   0.00    427.73     89.73
  140                  0.00    426.80     75.80
  141                  0.00    426.80     74.80
  142                  0.00    426.80     65.80
  143                  0.00    426.80     85.83
  144                 76.00    427.05     68.05
  146                  0.00    426.50     80.50
  147                 57.00    426.06    105.06
  148                 67.00    426.45     93.45
  149                  0.00    426.08    112.87
  15                   0.00    427.74     92.74
  150                103.00    425.84    117.77
  151                  0.00    425.84    120.60
  152                  0.00    425.84    115.82
  153                  0.00    425.84    115.84
  154                  0.00    426.48    101.48
  157                  0.00    425.98    122.98
  158A                60.00    418.06     97.06
  158B                60.00    418.05     97.05
  16B                  0.00    427.74     93.74
  160                 61.00    428.42     61.42
  162                  0.00    428.36     60.36
  163                 92.00    427.98     53.98
  164                  0.00    428.25     68.59
  165                  0.00    428.07     66.77
  166                 94.00    428.07     67.06
  167                  0.00    428.07     57.43
  169                  0.00    428.23     61.73
  17A                  0.00    427.74     92.74
  170                  0.00    428.50     69.50
  17B                  0.00    427.74     92.74
  171                  0.00    428.56     76.56
  172                  0.00    428.56     88.56
  18B                  0.00    427.74    102.74
  19                   0.00    428.65     70.65
  2                    0.00    428.35    102.35
  20                  85.00    428.49     64.49
  2002                 0.00    427.75     77.75
  2003                 0.00    427.75     77.75
  21                  63.00    428.41     65.68
  22                   0.00    428.40     66.80
  222                 61.00    428.25     78.25
  24                   0.00    428.16     84.16
  25                   0.00    428.02     83.02
  26                   0.00    427.83     79.83
  27                   0.00    427.87     77.87
  28                  53.00    427.70     79.70
  29                  51.00    427.28     71.28
  3                   55.00    428.17     87.82
  30                   0.00    427.24     66.24
  3002                 0.00    428.49     42.49
  3004                 0.00    428.49     42.49
  3005                 0.00    428.49     42.49
  3008                 0.00    428.49     43.49
  3012                 0.00    428.49     57.76
  3013                 0.00    428.49     63.56
  3016                 0.00    428.56     63.56
  3017                52.00    428.76     46.76
  3018                72.00    428.36     51.36
  3019                 0.00    428.49     59.10
  3020                 0.00    428.49     60.38
  3024                 0.00    428.49     63.55
  31                  45.00    426.97     69.18
  3152                 0.00    428.49     62.29
  32                   0.00    427.08     69.08
  34                  56.00    426.69     75.67
  35                   0.00    426.67     89.67
  36                   0.00    426.54     98.54
  39                   0.00    426.30    113.30
  41                   0.00    425.80    118.80
  46                   0.00    428.62     52.62
  47                   0.00    428.23     70.05
  48                   0.00    427.91     83.91
  49                  54.00    426.71     74.71
  5                    0.00    428.08     81.08
  52                  45.00    426.70     75.70
  53                 149.00    425.32     69.32
  54                   0.00    428.59     83.59
  55                   0.00    428.49     98.49
  56                   0.00    428.49     94.49
  58                   0.00    428.49     95.49
  59                   0.00    428.49     99.49
  6                   60.00    427.22     75.22
  60                   0.00    428.17     83.17
  61                   0.00    428.17     89.17
  62                   0.00    427.20     73.20
  64                   0.00    428.29     97.29
  65                   0.00    428.25     88.25
  66                   0.00    428.25     89.25
  67                   0.00    428.19     96.19
  68                   0.00    428.14     89.14
  69                   0.00    428.14     77.14
  7                    0.00    427.91     74.91
  70                 120.00    427.07     87.07
  71                   0.00    427.92     90.92
  72                 101.00    427.20     71.20
  73                 169.00    427.23     72.23
  77                  76.00    425.65     69.65
  78                   0.00    427.20     87.06
  79                   0.00    427.91     74.91
  8                    0.00    427.51     77.51
  80                 100.00    427.76     78.76
  81                  78.00    424.98     65.98
  82                   0.00    427.12     69.12
  85                  55.00    425.70     86.70
  86                   0.00    425.94     88.94
  87                   0.00    427.04     67.04
  88                  72.00    420.28     67.28
  89                  88.00    426.83     59.83
  90                   0.00    426.76     70.76
  91                  57.00    426.43     54.43
  92                   0.00    425.31     65.31
  91B                209.00    424.85     64.85
  94                  80.00    426.38     87.38
  95                   0.00    426.30     83.30
  97                   0.00    425.80     94.80
  99                   0.00    426.83     76.83
  74                  76.00    425.06     66.35
  1074                 0.00    427.21     69.21
  11A                144.00    425.56     82.56
  1011                 0.00    425.80     82.80
  0                -3863.00    429.00      0.00  Reservoir
   
   
  Link Results:
  ----------------------------------------------
                       Flow  Velocity  Headloss
  Link                 m3/h       m/s    /1000m
  ----------------------------------------------
  TU1                 -0.00      0.00      0.00
  TU10                57.00      0.62      1.91
  TU100              175.00      0.39      0.32
  TU101              175.00      0.25      0.11
  TU102                0.00      0.00      0.00
  TU103              175.00      0.25      0.11
  TU104              175.00      0.25      0.11
  TU105             1525.00      0.67      0.32
  TU106             1525.00      0.67      0.32
  TU107                0.00      0.00      0.00
  TU108             1580.00      0.69      0.35
  TU109             1755.00      0.77      0.42
  TU11               123.00      0.56      0.97
  TU110             1755.00      0.77      0.42
  TU111                0.00      0.00      0.00
  TU112               -0.00      0.00      0.00
  TU113                0.00      0.00      0.00
  TU114                0.00      0.00      0.00
  TU115             1830.00      0.65      0.27
  TU116             1830.00      0.65      0.27
  TU117              149.00      1.61     11.01
  TU118                0.00      0.00      0.00
  TU119             1830.00      0.65      0.27
  TU12                 0.00      0.00      0.00
  TU120             1979.00      0.70      0.31
  TU121                0.00      0.00      0.00
  TU122                0.00      0.00      0.00
  TU123               -0.00      0.00      0.00
  TU124               45.00      0.51      1.43
  TU125               99.00      0.72      2.02
  TU126               99.00      0.45      0.65
  TU127               99.00      0.45      0.65
  TU128                0.00      0.00      0.00
  TU129                0.00      0.00      0.00
  TU13                 0.00      0.00      0.00
  TU130                0.00      0.00      0.00
  TU131               94.00      0.41      0.53
  TU132                0.00      0.00      0.00
  TU133               94.00      0.41      0.53
  TU134              209.00      2.26     20.57
  TU135              186.00      0.41      0.35
  TU136              247.00      0.55      0.59
  TU137              346.00      0.49      0.37
  TU138              346.00      0.49      0.37
  TU139              346.00      0.34      0.15
  TU14               123.00      0.27      0.17
  TU140              418.00      0.41      0.22
  TU141                0.00      0.00      0.00
  TU142              177.00      0.48      0.52
  TU143               57.00      0.25      0.21
  TU144               -0.00      0.00      0.00
  TU145              209.00      1.45      6.95
  TU146              209.00      0.91      2.25
  TU147              266.00      0.72      1.10
  TU148               -0.00      0.00      0.00
  TU149               -0.00      0.00      0.00
  TU15                -0.00      0.00      0.00
  TU150               -0.00      0.00      0.00
  TU151              266.00      0.38      0.23
  TU152               -0.00      0.00      0.00
  TU15301            502.00      0.71      0.73
  TU15302            426.00      0.60      0.54
  TU1074              76.00      1.00      5.18
  TU154              671.00      0.66      0.51
  TU155                0.00      0.00      0.00
  TU156              671.00      0.66      0.51
  TU157              848.00      0.83      0.79
  TU158               60.00      1.07      7.01
  TU159              908.00      0.89      0.90
  TU16              3863.00      0.70      0.21
  TU160                0.00      0.00      0.00
  TU161              908.00      0.89      0.90
  TU162              617.00      0.45      0.21
  TU163              617.00      0.45      0.21
  TU164              617.00      0.45      0.21
  TU166               78.00      1.61     16.20
  TU167               -0.00      0.00      0.00
  TU168                0.00      0.00      0.00
  TU169               78.00      0.66      1.84
  TU17                -0.00      0.00      0.00
  TU170              178.00      0.81      1.89
  TU171              439.00      0.32      0.11
  TU17201            144.00      1.89     16.73
  TU17202              0.00      0.00      0.00
  TU1011A            144.00      1.89     16.73
  TU173              144.00      1.05      4.00
  TU174               80.00      1.42     11.86
  TU175              224.00      1.03      2.88
  TU176              123.00      0.12      0.02
  TU177              215.00      0.21      0.07
  TU178              123.00      0.12      0.02
  TU179                0.00      0.00      0.00
  TU18                 0.00      0.00      0.00
  TU180                0.00      0.00      0.00
  TU181                0.00      0.00      0.00
  TU182               -0.00      0.00      0.00
  TU183                0.00      0.00      0.00
  TU184                0.00      0.00      0.00
  TU185              257.00      0.57      0.64
  TU186               94.00      0.25      0.17
  TU187              186.00      0.41      0.35
  TU188             1205.00      0.87      0.71
  TU189             1205.00      0.87      0.71
  TU19                 0.00      0.00      0.00
  TU190               -0.00      0.00      0.00
  TU191                0.00      0.00      0.00
  TU192                0.00      0.00      0.00
  TU193                0.00      0.00      0.00
  TU194               -0.00      0.00      0.00
  TU195                0.00      0.00      0.00
  TU196                0.00      0.00      0.00
  TU197               -0.00      0.00      0.00
  TU198                0.00      0.00      0.00
  TU199                0.00      0.00      0.00
  TU2                  0.00      0.00      0.00
  TU20                 0.00      0.00      0.00
  TU200               -0.00      0.00      0.00
  TU201                0.00      0.00      0.00
  TU203               72.00      1.21      8.53
  TU204             1414.00      0.62      0.28
  TU205             1414.00      0.62      0.28
  TU21                -0.00      0.00      0.00
  TU22              1205.00      0.67      0.37
  TU23              1266.00      0.70      0.41
  TU24              1266.00      0.70      0.41
  TU25              1329.00      0.73      0.45
  TU26               775.00      0.76      0.67
  TU27               775.00      0.76      0.67
  TU28               826.00      0.81      0.75
  TU29               879.00      0.86      0.84
  TU3                 72.00      1.21      8.53
  TU30                 0.00      0.00      0.00
  TU31                -0.00      0.00      0.00
  TU32                 0.00      0.00      0.00
  TU33                 0.00      0.00      0.00
  TU34                 0.00      0.00      0.00
  TU35                52.00      0.93      5.40
  TU36                52.00      0.59      1.85
  TU37                52.00      0.15      0.07
  TU38                52.00      0.15      0.07
  TU39               146.00      1.67     12.16
  TU4                354.00      0.50      0.39
  TU40               205.00      1.50      7.65
  TU41               257.00      0.57      0.64
  TU42                92.00      0.64      1.55
  TU43               257.00      0.36      0.22
  TU44               257.00      0.36      0.22
  TU45               326.00      0.46      0.33
  TU46               326.00      0.46      0.33
  TU47                -0.00      0.00      0.00
  TU48               120.00      1.58     11.96
  TU49               120.00      1.01      4.04
  TU5                426.00      0.60      0.54
  TU50                 0.00      0.00      0.00
  TU51               120.00      0.64      1.33
  TU52               120.00      0.40      0.42
  TU53               120.00      0.40      0.42
  TU54                 0.00      0.00      0.00
  TU55               120.00      0.40      0.42
  TU56                 0.00      0.00      0.00
  TU57               120.00      0.34      0.29
  TU58                56.00      1.00      6.18
  TU59               176.00      0.50      0.58
  TU6                257.00      0.36      0.22
  TU60                -0.00      0.00      0.00
  TU61                 0.00      0.00      0.00
  TU62               103.00      0.55      1.01
  TU63                 0.00      0.00      0.00
  TU64               103.00      0.55      1.01
  TU65                57.00      1.17      9.12
  TU66               160.00      0.53      0.71
  TU67               227.00      0.64      0.93
  TU68               227.00      0.64      0.93
  TU69               403.00      0.57      0.49
  TU7                 76.00      1.28      9.42
  TU70               448.00      0.63      0.59
  TU71               448.00      0.63      0.59
  TU72                55.00      0.12      0.04
  TU73               189.00      0.42      0.36
  TU74               251.00      0.55      0.61
  TU75               251.00      0.55      0.61
  TU76               327.00      0.72      0.99
  TU77               327.00      0.72      0.99
  TU78                 0.00      0.00      0.00
  TU79                55.00      0.72      2.88
  TU8                 66.00      0.71      2.49
  TU80                 0.00      0.00      0.00
  TU81                55.00      0.46      0.98
  TU82                 0.00      0.00      0.00
  TU83                 0.00      0.00      0.00
  TU84                 0.00      0.00      0.00
  TU85                 0.00      0.00      0.00
  TU86                 0.00      0.00      0.00
  TU87                 0.00      0.00      0.00
  TU88                 0.00      0.00      0.00
  TU89                55.00      0.98      5.98
  TU9                  0.00      0.00      0.00
  TU90                 0.00      0.00      0.00
  TU91                55.00      0.63      2.05
  TU92               175.00      0.80      1.84
  TU93               175.00      0.50      0.58
  TU94                 0.00      0.00      0.00
  TU95               175.00      0.50      0.58
  TU96                 0.00      0.00      0.00
  TU97                 0.00      0.00      0.00
  TU98                 0.00      0.00      0.00
  TU99               175.00      0.39      0.32
  TU4000              60.00      0.79      3.37
   
  Analysis ended Fri Dec  1 08:58:33 2023
