  Page 1                                    Fri Dec  1 09:06:52 2023

  ******************************************************************
  *                           E P A N E T                          *
  *                   Hydraulic and Water Quality                  *
  *                   Analysis for Pipe Networks                   *
  *                         Version 2.2                            *
  ******************************************************************
  
  Analysis begun Fri Dec  1 09:06:52 2023

   
  Node Results:
  ----------------------------------------------
                     Demand      Head  Pressure
  Node                 m3/h         m         m
  ----------------------------------------------
  3661                 0.00    428.76     50.62
  482                  0.00    428.84     82.84
  661                  0.00    426.95     96.95
  6610                 0.00    428.60      2.19
  6611                 0.00    428.40     93.40
  6612                 0.00    428.63     66.26
  6613                 0.00    427.90     72.90
  6615                 0.00    428.55     89.55
  6616                 0.00    427.78     66.78
  6617                 0.00    427.56     84.56
  6618                 0.00    428.35     80.35
  662                  0.00    428.82    100.82
  6620                 0.00    427.62    119.62
  6621                 0.00    427.62     99.62
  6622                 0.00    427.62     90.62
  6623                 0.00    427.62     76.62
  6624                 0.00    427.63     75.63
  6625                 0.00    427.46    115.46
  6626                 0.00    427.46    106.46
  6627                 0.00    425.91    104.91
  6628                 0.00    428.82     89.82
  6629                 0.00    428.82     88.82
  663                  0.00    428.73     87.73
  6630                 0.00    428.82      3.96
  6632                 0.00    428.82     88.82
  6633                 0.00    428.89     66.25
  6634                 0.00    428.90     57.90
  6635                 0.00    428.86     76.86
  6636                 0.00    428.86     72.86
  6637                 0.00    428.84     61.84
  6639                 0.00    428.60     68.60
  664                  0.00    428.64     80.64
  6640                 0.00    428.60     68.60
  6641                 0.00    428.60     69.92
  6642                 0.00    428.60     72.60
  6643                 0.00    428.67     76.67
  6644                 0.00    428.69     76.69
  6645                 0.00    428.70     78.70
  6646                 0.00    428.64     81.62
  6648                 0.00    428.64     82.63
  6649                 0.00    427.91     88.91
  665                  0.00    428.58     83.58
  666                  0.00    428.82     88.82
  6665                 0.00    428.46     63.32
  6666                 0.00    428.76     61.10
  667                  0.00    428.69     76.69
  668                  0.00    426.95     96.95
  669                  0.00    428.82     83.82
  1                    0.00    428.85     98.85
  10                  71.00    428.23     76.23
  100                  0.00    428.60     73.60
  100B                 0.00    428.60     70.60
  101                 96.00    427.62     74.62
  103                  0.00    425.99     86.99
  104                163.00    425.81     86.81
  105                  0.00    427.90     72.90
  106                  0.00    427.90     72.90
  107                  0.00    428.55     89.55
  108                  0.00    428.55     92.99
  109                  0.00    428.55     91.55
  11B                  0.00    428.57     85.57
  110                  0.00    428.33     82.33
  111                  0.00    428.28     90.30
  112                  0.00    428.31     86.31
  113                  0.00    428.21    105.21
  114                 55.00    427.92     79.92
  115                 51.00    427.68     81.68
  116                  0.00    427.83     82.83
  117                 74.00    427.47     84.47
  118                  0.00    427.56     88.56
  119                  0.00    427.56    104.75
  12                   0.00    428.50     98.16
  121                  0.00    428.10     78.10
  122                  0.00    427.83     80.83
  123                  0.00    427.83     81.83
  125                  0.00    428.09     77.09
  126                  0.00    428.09     80.09
  127                  0.00    428.09     84.76
  128                 65.00    427.74     65.74
  129                  0.00    427.25     71.25
  130                118.00    427.01     85.93
  130B                72.00    427.12     74.12
  132                 55.00    425.39     92.39
  134                  0.00    425.91    104.91
  135                 54.00    424.07    108.07
  137                 54.00    420.70    111.70
  139                  0.00    426.95     66.95
  14                   0.00    428.35     90.35
  140                  0.00    426.95     75.95
  141                  0.00    426.95     74.95
  142                  0.00    426.95     65.95
  143                  0.00    425.39     84.42
  144                 82.00    427.48     68.48
  146                  0.00    427.51     81.51
  147                 59.00    427.21    106.21
  148                 70.00    427.49     94.49
  149                  0.00    427.46    114.25
  15                   0.00    428.40     93.40
  150                  0.00    427.46    119.39
  151                  0.00    427.46    122.22
  152                  0.00    427.46    117.44
  153                  0.00    427.46    117.46
  154                  0.00    427.62    102.62
  157                  0.00    427.62    124.62
  158A                 0.00    427.62    106.62
  158B                 0.00    427.62    106.62
  16B                  0.00    428.40     94.40
  160                  0.00    428.83     61.83
  162                  0.00    428.80     60.80
  163                  0.00    428.76     54.76
  164                  0.00    428.66     69.00
  165                  0.00    428.46     67.16
  166                 91.00    428.46     67.45
  167                  0.00    428.46     57.82
  169                 52.00    428.53     62.03
  17A                  0.00    428.40     93.40
  170                  0.00    428.85     69.85
  17B                  0.00    428.40     93.40
  171                  0.00    428.86     76.86
  172                  0.00    428.86     88.86
  18B                  0.00    428.40    103.40
  19                   0.00    428.89     70.89
  2                    0.00    428.83    102.83
  20                  88.00    428.76     64.76
  2002                 0.00    428.82     78.82
  2003                 0.00    428.82     78.82
  21                   0.00    428.71     65.98
  22                   0.00    428.71     67.11
  222                  0.00    428.61     78.61
  24                   0.00    428.55     84.55
  25                   0.00    428.46     83.46
  26                   0.00    428.35     80.35
  27                   0.00    428.36     78.36
  28                   0.00    428.22     80.22
  29                   0.00    427.84     71.84
  3                    0.00    428.78     88.43
  30                   0.00    427.79     66.79
  3002                 0.00    428.76     42.76
  3004                 0.00    428.76     42.76
  3005                 0.00    428.76     42.76
  3008                 0.00    428.76     43.76
  3012                 0.00    428.76     58.03
  3013                 0.00    428.76     63.83
  3016                 0.00    428.79     63.79
  3017               112.00    428.91     46.91
  3018                55.00    428.72     51.72
  3019                 0.00    428.76     59.37
  3020                 0.00    428.76     60.65
  3024                 0.00    428.76     63.82
  31                  90.00    427.66     69.87
  3152                 0.00    428.76     62.56
  32                   0.00    427.71     69.71
  34                  67.00    427.47     76.45
  35                   0.00    427.62     90.62
  36                   0.00    427.62     99.62
  39                   0.00    427.62    114.62
  41                   0.00    427.62    120.62
  46                   0.00    428.88     52.88
  47                   0.00    428.61     70.43
  48                   0.00    428.84     84.84
  49                   0.00    428.84     76.84
  5                    0.00    428.76     81.76
  52                   0.00    428.84     77.84
  53                  64.00    428.18     72.18
  54                   0.00    428.88     83.88
  55                   0.00    428.81     98.81
  56                  53.00    428.78     94.78
  58                   0.00    428.78     95.78
  59                   0.00    428.78     99.78
  6                    0.00    428.69     76.69
  60                   0.00    428.78     83.78
  61                   0.00    428.78     89.78
  62                   0.00    428.69     74.69
  64                   0.00    428.82     97.82
  65                   0.00    428.82     88.82
  66                   0.00    428.82     89.82
  67                   0.00    428.82     96.82
  68                   0.00    428.82     89.82
  69                   0.00    428.82     77.82
  7                    0.00    428.68     75.68
  70                   0.00    428.82     88.82
  71                   0.00    428.82     91.82
  72                   0.00    428.69     72.69
  73                   0.00    428.67     73.67
  77                   0.00    428.69     72.69
  78                   0.00    428.69     88.55
  79                  50.00    428.68     75.68
  8                    0.00    428.70     78.70
  80                   0.00    428.64     79.64
  81                   0.00    428.64     69.64
  82                   0.00    428.64     70.64
  85                   0.00    428.82     89.82
  86                   0.00    428.82     91.82
  87                   0.00    428.64     68.64
  88                   0.00    428.63     75.63
  89                   0.00    428.60     61.60
  90                   0.00    428.60     72.60
  91                   0.00    428.60     56.60
  92                   0.00    428.60     68.60
  91B                  0.00    428.60     68.60
  94                  71.00    427.37     88.37
  95                   0.00    427.20     84.20
  97                 140.00    420.33     89.33
  99                 150.00    425.80     75.80
  74                   0.00    428.66     69.95
  1074                 0.00    428.66     70.66
  11A                  0.00    426.72     83.72
  1011                 0.00    426.72     83.72
  0                -2222.00    429.00      0.00  Reservoir
   
   
  Link Results:
  ----------------------------------------------
                       Flow  Velocity  Headloss
  Link                 m3/h       m/s    /1000m
  ----------------------------------------------
  TU1                 -0.00      0.00      0.00
  TU10                 0.00      0.00      0.00
  TU100                0.00      0.00      0.00
  TU101                0.00      0.00      0.00
  TU102                0.00      0.00      0.00
  TU103                0.00      0.00      0.00
  TU104                0.00      0.00      0.00
  TU105              741.00      0.32      0.09
  TU106              741.00      0.32      0.09
  TU107                0.00      0.00      0.00
  TU108              741.00      0.32      0.09
  TU109              741.00      0.32      0.09
  TU11                96.00      0.44      0.62
  TU110              741.00      0.32      0.09
  TU111                0.00      0.00      0.00
  TU112               -0.00      0.00      0.00
  TU113               53.00      0.28      0.30
  TU114               53.00      0.28      0.30
  TU115              794.00      0.28      0.06
  TU116              794.00      0.28      0.06
  TU117               64.00      0.69      2.35
  TU118                0.00      0.00      0.00
  TU119              794.00      0.28      0.06
  TU12               163.00      1.86     14.89
  TU120              858.00      0.30      0.07
  TU121                0.00      0.00      0.00
  TU122                0.00      0.00      0.00
  TU123               -0.00      0.00      0.00
  TU124                0.00      0.00      0.00
  TU125               -0.00      0.00      0.00
  TU126               -0.00      0.00      0.00
  TU127               -0.00      0.00      0.00
  TU128                0.00      0.00      0.00
  TU129                0.00      0.00      0.00
  TU13               163.00      1.19      5.02
  TU130               -0.00      0.00      0.00
  TU131               91.00      0.40      0.50
  TU132               52.00      0.23      0.18
  TU133              143.00      0.62      1.13
  TU134               -0.00      0.00      0.00
  TU135              143.00      0.32      0.22
  TU136              143.00      0.32      0.22
  TU137              143.00      0.20      0.08
  TU138              143.00      0.20      0.08
  TU139              143.00      0.14      0.03
  TU14               259.00      0.57      0.64
  TU140              198.00      0.19      0.06
  TU141                0.00      0.00      0.00
  TU142                0.00      0.00      0.00
  TU143               -0.00      0.00      0.00
  TU144               -0.00      0.00      0.00
  TU145               -0.00      0.00      0.00
  TU146                0.00      0.00      0.00
  TU147               -0.00      0.00      0.00
  TU148                0.00      0.00      0.00
  TU149               -0.00      0.00      0.00
  TU15                -0.00      0.00      0.00
  TU150               -0.00      0.00      0.00
  TU151               -0.00      0.00      0.00
  TU152              150.00      1.71     12.78
  TU15301            150.00      0.21      0.08
  TU15302            150.00      0.21      0.08
  TU1074               0.00      0.00      0.00
  TU154              150.00      0.15      0.03
  TU155               71.00      1.19      8.32
  TU156              221.00      0.22      0.07
  TU157              221.00      0.22      0.07
  TU158                0.00      0.00      0.00
  TU159              221.00      0.22      0.07
  TU16              2222.00      0.40      0.08
  TU160                0.00      0.00      0.00
  TU161              221.00      0.22      0.07
  TU162              520.00      0.38      0.15
  TU163              470.00      0.34      0.13
  TU164              520.00      0.38      0.16
  TU166               -0.00      0.00      0.00
  TU167               -0.00      0.00      0.00
  TU168                0.00      0.00      0.00
  TU169                0.00      0.00      0.00
  TU17                -0.00      0.00      0.00
  TU170                0.00      0.00      0.00
  TU171              470.00      0.34      0.13
  TU17201            140.00      1.84     15.88
  TU17202            140.00      1.84     15.88
  TU1011A             -0.00      0.00      0.00
  TU173              140.00      1.02      3.80
  TU174               71.00      1.26      9.53
  TU175              211.00      0.97      2.58
  TU176              259.00      0.25      0.09
  TU177              259.00      0.25      0.09
  TU178              259.00      0.25      0.09
  TU179                0.00      0.00      0.00
  TU18                 0.00      0.00      0.00
  TU180                0.00      0.00      0.00
  TU181                0.00      0.00      0.00
  TU182                0.00      0.00      0.00
  TU183                0.00      0.00      0.00
  TU184                0.00      0.00      0.00
  TU185              180.00      0.40      0.33
  TU186              143.00      0.39      0.36
  TU187              143.00      0.32      0.22
  TU188              966.00      0.70      0.47
  TU189              966.00      0.70      0.47
  TU19                 0.00      0.00      0.00
  TU190               -0.00      0.00      0.00
  TU191               -0.00      0.00      0.00
  TU192                0.00      0.00      0.00
  TU193                0.00      0.00      0.00
  TU194               -0.00      0.00      0.00
  TU195                0.00      0.00      0.00
  TU196                0.00      0.00      0.00
  TU197               -0.00      0.00      0.00
  TU198                0.00      0.00      0.00
  TU199                0.00      0.00      0.00
  TU2                  0.00      0.00      0.00
  TU20                 0.00      0.00      0.00
  TU200               -0.00      0.00      0.00
  TU201                0.00      0.00      0.00
  TU203               55.00      0.93      5.22
  TU204             1054.00      0.46      0.16
  TU205             1054.00      0.46      0.16
  TU21                -0.00      0.00      0.00
  TU22               966.00      0.53      0.25
  TU23               966.00      0.53      0.25
  TU24               966.00      0.53      0.25
  TU25               966.00      0.53      0.25
  TU26               786.00      0.77      0.69
  TU27               786.00      0.77      0.69
  TU28               786.00      0.77      0.69
  TU29               786.00      0.77      0.69
  TU3                  0.00      0.00      0.00
  TU30                 0.00      0.00      0.00
  TU31                -0.00      0.00      0.00
  TU32                74.00      0.84      3.51
  TU33                74.00      0.34      0.39
  TU34               125.00      0.57      1.00
  TU35                 0.00      0.00      0.00
  TU36                -0.00      0.00      0.00
  TU37               125.00      0.35      0.31
  TU38               180.00      0.51      0.61
  TU39                -0.00      0.00      0.00
  TU4                150.00      0.21      0.08
  TU40                 0.00      0.00      0.00
  TU41               180.00      0.40      0.33
  TU42                 0.00      0.00      0.00
  TU43               180.00      0.25      0.11
  TU44               180.00      0.25      0.11
  TU45               180.00      0.25      0.11
  TU46               180.00      0.25      0.11
  TU47                -0.00      0.00      0.00
  TU48                 0.00      0.00      0.00
  TU49                 0.00      0.00      0.00
  TU5                150.00      0.21      0.08
  TU50                 0.00      0.00      0.00
  TU51                 0.00      0.00      0.00
  TU52                 0.00      0.00      0.00
  TU53                 0.00      0.00      0.00
  TU54                 0.00      0.00      0.00
  TU55                 0.00      0.00      0.00
  TU56                 0.00      0.00      0.00
  TU57                 0.00      0.00      0.00
  TU58                67.00      1.19      8.57
  TU59                67.00      0.19      0.10
  TU6                180.00      0.25      0.11
  TU60                 0.00      0.00      0.00
  TU61                 0.00      0.00      0.00
  TU62                -0.00      0.00      0.00
  TU63                 0.00      0.00      0.00
  TU64                 0.00      0.00      0.00
  TU65                59.00      1.22      9.72
  TU66                59.00      0.20      0.12
  TU67               129.00      0.37      0.33
  TU68               129.00      0.37      0.33
  TU69               196.00      0.28      0.13
  TU7                  0.00      0.00      0.00
  TU70               286.00      0.40      0.26
  TU71               286.00      0.40      0.26
  TU72               163.00      0.36      0.28
  TU73               281.00      0.62      0.75
  TU74               353.00      0.78      1.13
  TU75               353.00      0.78      1.13
  TU76               435.00      0.96      1.66
  TU77               500.00      1.11      2.15
  TU78                54.00      1.11      8.27
  TU79               108.00      1.42      9.85
  TU8                 96.00      1.04      4.92
  TU80                 0.00      0.00      0.00
  TU81               108.00      0.91      3.33
  TU82                 0.00      0.00      0.00
  TU83                55.00      0.72      2.88
  TU84                 0.00      0.00      0.00
  TU85                 0.00      0.00      0.00
  TU86                 0.00      0.00      0.00
  TU87                 0.00      0.00      0.00
  TU88                55.00      0.12      0.04
  TU89                 0.00      0.00      0.00
  TU9                  0.00      0.00      0.00
  TU90                 0.00      0.00      0.00
  TU91                -0.00      0.00      0.00
  TU92                 0.00      0.00      0.00
  TU93                 0.00      0.00      0.00
  TU94                 0.00      0.00      0.00
  TU95                 0.00      0.00      0.00
  TU96                 0.00      0.00      0.00
  TU97                 0.00      0.00      0.00
  TU98                 0.00      0.00      0.00
  TU99                 0.00      0.00      0.00
  TU4000               0.00      0.00      0.00
   
  Analysis ended Fri Dec  1 09:06:52 2023
