  Page 1                                    Fri Dec  1 08:57:46 2023

  ******************************************************************
  *                           E P A N E T                          *
  *                   Hydraulic and Water Quality                  *
  *                   Analysis for Pipe Networks                   *
  *                         Version 2.2                            *
  ******************************************************************
  
  Analysis begun Fri Dec  1 08:57:46 2023

   
  Node Results:
  ----------------------------------------------
                     Demand      Head  Pressure
  Node                 m3/h         m         m
  ----------------------------------------------
  3661                 0.00    427.59     49.45
  482                  0.00    426.58     80.58
  661                  0.00    422.73     92.73
  6610                 0.00    422.16      2.67
  6611                 0.00    422.16     87.16
  6612                 0.00    423.62     61.25
  6613                 0.00    421.42     66.42
  6615                 0.00    425.98     86.98
  6616                 0.00    424.52     63.52
  6617                 0.00    422.55     79.55
  6618                 0.00    425.85     77.85
  662                  0.00    426.64     98.64
  6620                 0.00    421.63    113.63
  6621                 0.00    423.15     95.15
  6622                 0.00    423.50     86.50
  6623                 0.00    423.85     72.85
  6624                 0.00    423.96     71.96
  6625                 0.00    422.88    110.88
  6626                 0.00    423.28    102.28
  6627                 0.00    420.13     99.13
  6628                 0.00    422.99     83.99
  6629                 0.00    424.98     84.98
  663                  0.00    425.58     84.58
  6630                 0.00    425.59      0.73
  6632                 0.00    426.01     86.01
  6633                 0.00    427.91     65.27
  6634                 0.00    428.03     57.03
  6635                 0.00    427.79     75.79
  6636                 0.00    427.79     71.79
  6637                 0.00    427.46     60.46
  6639                 0.00    423.01     63.01
  664                  0.00    424.82     76.82
  6640                 0.00    422.72     62.72
  6641                 0.00    423.23     64.55
  6642                 0.00    423.18     67.18
  6643                 0.00    424.25     72.25
  6644                 0.00    424.53     72.53
  6645                 0.00    424.68     74.68
  6646                 0.00    420.64     73.62
  6648                 0.00    420.92     74.91
  6649                 0.00    423.35     84.35
  665                  0.00    424.44     79.44
  666                  0.00    425.59     85.59
  6665                 0.00    426.11     60.97
  6666                 0.00    426.94     59.28
  667                  0.00    424.49     72.49
  668                  0.00    422.72     92.72
  669                  0.00    424.78     79.78
  1                   69.00    427.27     97.27
  10                   0.00    424.25     72.25
  100                 98.00    423.16     68.16
  100B                78.00    422.28     64.28
  101                117.00    421.01     68.01
  103                  0.00    420.97     81.97
  104                139.00    420.84     81.84
  105                  0.00    421.42     66.42
  106                 56.00    421.34     66.34
  107                 76.00    425.69     86.69
  108                 52.00    425.30     89.74
  109                  0.00    425.83     88.83
  11B                142.00    424.28     81.28
  110                 64.00    425.73     79.73
  111                  0.00    425.34     87.36
  112                  0.00    425.54     83.54
  113                  0.00    424.79    101.79
  114                 58.00    423.48     75.48
  115                  0.00    423.00     77.00
  116                  0.00    423.23     78.23
  117                 81.00    422.44     79.44
  118                 76.00    421.52     82.52
  119                  0.00    421.52     98.71
  12                   0.00    423.67     93.33
  121                 58.00    423.93     73.93
  122                 66.00    419.46     72.46
  123                  0.00    422.70     76.70
  125                  0.00    423.86     72.86
  126                 71.00    422.97     74.97
  127                139.00    421.29     77.96
  128                 62.00    424.45     62.45
  129                  0.00    423.50     67.50
  130                128.00    422.94     81.86
  130B                57.00    423.23     70.23
  132                 55.00    416.74     83.74
  134                 60.00    419.84     98.84
  135                 58.00    417.96    101.96
  137                 60.00    413.88    104.88
  139                 49.00    422.47     62.47
  14                 104.00    422.73     84.73
  140                  0.00    422.60     71.60
  141                  0.00    422.59     70.59
  142                  0.00    422.47     61.47
  143                 60.00    414.05     73.08
  144                 82.00    423.97     64.97
  146                  0.00    423.55     77.55
  147                 43.00    423.14    102.14
  148                 58.00    423.49     90.49
  149                  0.00    422.88    109.67
  15                   0.00    422.16     87.16
  150                 70.00    422.41    114.34
  151                  0.00    422.11    116.87
  152                 76.00    419.80    109.78
  153                  0.00    420.58    110.58
  154                  0.00    422.99     97.99
  157                 60.00    420.37    117.37
  158A                74.00    409.98     88.98
  158B                74.00    409.95     88.95
  16B                 64.00    422.86     88.86
  160                 64.00    427.40     60.40
  162                  0.00    427.18     59.18
  163                 94.00    426.61     52.61
  164                 64.00    426.61     66.95
  165                 62.00    426.11     64.81
  166                 92.00    426.11     65.10
  167                  0.00    426.11     55.47
  169                 69.00    426.36     59.86
  17A                  0.00    421.67     86.67
  170                  0.00    427.64     68.64
  17B                166.00    421.18     86.18
  171                  0.00    427.79     75.79
  172                  0.00    427.79     87.79
  18B                203.00    416.20     91.20
  19                   0.00    427.91     69.91
  2                    0.00    426.77    100.77
  20                  86.00    427.59     63.59
  2002                 0.00    424.78     74.78
  2003                 0.00    424.78     74.78
  21                  62.00    427.37     64.64
  22                  74.00    427.35     65.75
  222                 70.00    426.93     76.93
  24                   0.00    426.69     82.69
  25                   0.00    426.34     81.34
  26                   0.00    425.85     77.85
  27                   0.00    425.99     75.99
  28                  58.00    425.62     77.62
  29                  53.00    424.67     68.67
  3                    0.00    426.19     85.84
  30                   0.00    424.56     63.56
  3002                 0.00    427.59     41.59
  3004                 0.00    427.59     41.59
  3005                 0.00    427.59     41.59
  3008                 0.00    427.59     42.59
  3012                 0.00    427.59     56.86
  3013                 0.00    427.59     62.66
  3016                 0.00    427.76     62.76
  3017               123.00    428.29     46.29
  3018                67.00    427.72     50.72
  3019                 0.00    427.59     58.20
  3020                 0.00    427.59     59.48
  3024                 0.00    427.59     62.65
  31                  55.00    424.13     66.34
  3152                 0.00    427.59     61.39
  32                   0.00    424.30     66.30
  34                  52.00    423.75     72.73
  35                   0.00    423.50     86.50
  36                   0.00    423.15     95.15
  39                   0.00    422.49    109.49
  41                   0.00    421.36    114.36
  46                   0.00    427.94     51.94
  47                   0.00    426.49     68.31
  48                   0.00    426.21     82.21
  49                  85.00    423.42     71.42
  5                    0.00    425.87     78.87
  52                  73.00    423.39     72.39
  53                   0.00    428.03     72.03
  54                   0.00    427.68     82.68
  55                   0.00    426.81     96.81
  56                  58.00    426.58     92.58
  58                 127.00    425.60     92.60
  59                   0.00    425.60     96.60
  6                   60.00    424.32     72.32
  60                  46.00    425.33     80.33
  61                   0.00    425.33     86.33
  62                 111.00    419.36     65.36
  64                  51.00    426.35     95.35
  65                  86.00    425.64     85.64
  66                  81.00    426.00     87.00
  67                 103.00    425.71     93.71
  68                   0.00    425.59     86.59
  69                   0.00    425.59     74.59
  7                    0.00    425.15     72.15
  70                 141.00    423.98     83.98
  71                 112.00    422.09     85.09
  72                  97.00    423.90     67.90
  73                 154.00    424.19     69.19
  77                 111.00    420.78     64.78
  78                   0.00    423.90     83.76
  79                  51.00    425.14     72.14
  8                    0.00    424.68     74.68
  80                  88.00    424.60     75.60
  81                  72.00    419.07     60.07
  82                 131.00    419.85     61.85
  85                  51.00    422.78     83.78
  86                   0.00    422.99     85.99
  87                 113.00    423.76     63.76
  88                   0.00    423.62     70.62
  89                  80.00    423.33     56.33
  90                   0.00    423.18     67.18
  91                   0.00    423.01     51.01
  92                   0.00    422.16     62.16
  91B                157.00    421.90     61.90
  94                  71.00    422.81     83.81
  95                   0.00    421.93     78.93
  97                 121.00    416.09     85.09
  99                 142.00    420.80     70.80
  74                  77.00    421.94     63.23
  1074                 0.00    424.14     66.14
  11A                 83.00    420.89     77.89
  1011                 0.00    420.97     77.97
  0                -6981.00    429.00      0.00  Reservoir
   
   
  Link Results:
  ----------------------------------------------
                       Flow  Velocity  Headloss
  Link                 m3/h       m/s    /1000m
  ----------------------------------------------
  TU1                 -0.00      0.00      0.00
  TU10                 0.00      0.00      0.00
  TU100              407.00      0.90      1.47
  TU101              488.00      0.69      0.70
  TU102               86.00      1.53     13.54
  TU103              574.00      0.81      0.94
  TU104              625.00      0.88      1.09
  TU105             2886.00      1.26      1.05
  TU106             2886.00      1.26      1.05
  TU107                0.00      0.00      0.00
  TU108             2932.00      1.28      1.08
  TU109             3557.00      1.55      1.55
  TU11               173.00      0.79      1.80
  TU110             3557.00      1.55      1.55
  TU111                0.00      0.00      0.00
  TU112              127.00      0.93      3.18
  TU113              185.00      0.98      2.92
  TU114              185.00      0.98      2.92
  TU115             3811.00      1.35      1.05
  TU116             3811.00      1.35      1.05
  TU117               -0.00      0.00      0.00
  TU118                0.00      0.00      0.00
  TU119             3811.00      1.35      1.05
  TU12               139.00      1.59     11.10
  TU120             3811.00      1.35      1.05
  TU121                0.00      0.00      0.00
  TU122                0.00      0.00      0.00
  TU123               -0.00      0.00      0.00
  TU124               73.00      0.83      3.42
  TU125              158.00      1.15      4.74
  TU126              158.00      0.72      1.52
  TU127              158.00      0.72      1.52
  TU128                0.00      0.00      0.00
  TU129                0.00      0.00      0.00
  TU13               139.00      1.02      3.75
  TU130               62.00      0.27      0.25
  TU131              154.00      0.67      1.29
  TU132               69.00      0.30      0.30
  TU133              223.00      0.97      2.53
  TU134              157.00      1.69     12.12
  TU135              381.00      0.84      1.30
  TU136              445.00      0.98      1.73
  TU137              603.00      0.85      1.02
  TU138              603.00      0.85      1.02
  TU139              603.00      0.59      0.42
  TU14               416.00      0.92      1.53
  TU140              670.00      0.66      0.51
  TU141              111.00      1.87     18.89
  TU142              319.00      0.86      1.53
  TU143               -0.00      0.00      0.00
  TU144               78.00      0.84      3.37
  TU145              157.00      1.09      4.11
  TU146              235.00      1.02      2.79
  TU147              235.00      0.63      0.87
  TU148               -0.00      0.00      0.00
  TU149               98.00      0.68      1.74
  TU15                -0.00      0.00      0.00
  TU150               98.00      0.68      1.74
  TU151              333.00      0.47      0.35
  TU152              142.00      1.62     11.55
  TU15301            745.00      1.05      1.51
  TU15302            668.00      0.95      1.24
  TU1074              77.00      1.01      5.31
  TU154              899.00      0.88      0.88
  TU155                0.00      0.00      0.00
  TU156              899.00      0.88      0.88
  TU157             1218.00      1.20      1.54
  TU158               60.00      1.07      7.01
  TU159             1278.00      1.26      1.68
  TU16              6981.00      1.26      0.63
  TU160                0.00      0.00      0.00
  TU161             1278.00      1.26      1.68
  TU162             1608.00      1.16      1.21
  TU163             1557.00      1.12      1.14
  TU164             1608.00      1.16      1.21
  TU166               72.00      1.48     13.99
  TU167              131.00      1.72     14.05
  TU168              131.00      1.72     14.05
  TU169              203.00      1.71     10.60
  TU17                52.00      0.93      5.40
  TU170              291.00      1.33      4.66
  TU171             1266.00      0.91      0.78
  TU17201            204.00      2.68     31.90
  TU17202            121.00      1.59     12.14
  TU1011A             83.00      1.09      6.09
  TU173              204.00      1.49      7.58
  TU174               71.00      1.26      9.53
  TU175              275.00      1.26      4.20
  TU176              849.00      0.83      0.79
  TU177              991.00      0.97      1.05
  TU178              849.00      0.83      0.79
  TU179              369.00      1.05      2.26
  TU18                52.00      0.59      1.85
  TU180              369.00      1.05      2.26
  TU181              203.00      1.71     10.60
  TU182              369.00      1.69      7.22
  TU183               46.00      0.53      1.48
  TU184                0.00      0.00      0.00
  TU185              549.00      1.21      2.55
  TU186              287.00      0.77      1.26
  TU187              381.00      0.84      1.30
  TU188             1957.00      1.41      1.74
  TU189             1957.00      1.41      1.74
  TU19                76.00      1.35     10.79
  TU190               76.00      1.00      5.18
  TU191               -0.00      0.00      0.00
  TU192                0.00      0.00      0.00
  TU193               -0.00      0.00      0.00
  TU194               -0.00      0.00      0.00
  TU195                0.00      0.00      0.00
  TU196                0.00      0.00      0.00
  TU197               -0.00      0.00      0.00
  TU198                0.00      0.00      0.00
  TU199                0.00      0.00      0.00
  TU2                  0.00      0.00      0.00
  TU20               128.00      0.94      3.23
  TU200               -0.00      0.00      0.00
  TU201                0.00      0.00      0.00
  TU203               67.00      1.13      7.48
  TU204             2377.00      1.04      0.73
  TU205             2377.00      1.04      0.73
  TU21                76.00      0.64      1.76
  TU22              2085.00      1.15      1.02
  TU23              2155.00      1.19      1.09
  TU24              2229.00      1.23      1.16
  TU25              2291.00      1.27      1.22
  TU26              1233.00      1.21      1.57
  TU27              1233.00      1.21      1.57
  TU28              1286.00      1.26      1.70
  TU29              1344.00      1.32      1.85
  TU3                  0.00      0.00      0.00
  TU30                 0.00      0.00      0.00
  TU31                76.00      0.87      3.68
  TU32                81.00      0.92      4.13
  TU33               157.00      0.72      1.51
  TU34               157.00      0.72      1.51
  TU35                66.00      1.17      8.34
  TU36                66.00      0.75      2.85
  TU37               223.00      0.63      0.90
  TU38               281.00      0.80      1.37
  TU39               139.00      1.59     11.10
  TU4                555.00      0.79      0.88
  TU40               210.00      1.53      7.99
  TU41               491.00      1.09      2.08
  TU42                94.00      0.65      1.61
  TU43               549.00      0.78      0.86
  TU44               549.00      0.78      0.86
  TU45               613.00      0.87      1.06
  TU46               613.00      0.87      1.06
  TU47                -0.00      0.00      0.00
  TU48               148.00      1.95     17.60
  TU49               148.00      1.25      5.93
  TU5                555.00      0.79      0.88
  TU50                60.00      1.24     10.02
  TU51               208.00      1.11      3.62
  TU52               208.00      0.69      1.15
  TU53               208.00      0.69      1.15
  TU54                 0.00      0.00      0.00
  TU55               208.00      0.69      1.15
  TU56                 0.00      0.00      0.00
  TU57               208.00      0.59      0.79
  TU58                52.00      0.93      5.40
  TU59               260.00      0.74      1.19
  TU6                549.00      0.78      0.86
  TU60                76.00      1.57     15.45
  TU61                 0.00      0.00      0.00
  TU62               146.00      0.78      1.89
  TU63                 0.00      0.00      0.00
  TU64               146.00      0.78      1.89
  TU65                43.00      0.89      5.46
  TU66               189.00      0.63      0.96
  TU67               247.00      0.70      1.08
  TU68               247.00      0.70      1.08
  TU69               507.00      0.72      0.75
  TU7                111.00      1.87     18.89
  TU70               562.00      0.80      0.90
  TU71               562.00      0.80      0.90
  TU72               342.00      0.76      1.07
  TU73               470.00      1.04      1.92
  TU74               527.00      1.16      2.36
  TU75               527.00      1.16      2.36
  TU76               609.00      1.35      3.09
  TU77               671.00      1.48      3.69
  TU78                60.00      1.24     10.02
  TU79               118.00      1.55     11.59
  TU8                117.00      1.26      7.06
  TU80                60.00      1.24     10.02
  TU81               178.00      1.50      8.32
  TU82                60.00      1.07      7.01
  TU83               115.00      1.51     11.06
  TU84                 0.00      0.00      0.00
  TU85                49.00      0.36      0.57
  TU86                49.00      0.22      0.18
  TU87                49.00      0.26      0.26
  TU88               164.00      0.36      0.28
  TU89                51.00      0.91      5.21
  TU9                 56.00      0.94      5.40
  TU90                 0.00      0.00      0.00
  TU91                51.00      0.58      1.79
  TU92               192.00      0.88      2.17
  TU93               192.00      0.54      0.68
  TU94               112.00      1.28      7.47
  TU95               304.00      0.86      1.58
  TU96                 0.00      0.00      0.00
  TU97                 0.00      0.00      0.00
  TU98                 0.00      0.00      0.00
  TU99               304.00      0.67      0.86
  TU4000              74.00      0.97      4.93
   
  Analysis ended Fri Dec  1 08:57:46 2023
