  Page 1                                    Fri Dec  1 08:58:19 2023

  ******************************************************************
  *                           E P A N E T                          *
  *                   Hydraulic and Water Quality                  *
  *                   Analysis for Pipe Networks                   *
  *                         Version 2.2                            *
  ******************************************************************
  
  Analysis begun Fri Dec  1 08:58:19 2023

   
  Node Results:
  ----------------------------------------------
                     Demand      Head  Pressure
  Node                 m3/h         m         m
  ----------------------------------------------
  3661                 0.00    427.79     49.65
  482                  0.00    426.75     80.75
  661                  0.00    423.42     93.42
  6610                 0.00    425.31      1.48
  6611                 0.00    422.28     87.28
  6612                 0.00    425.36     62.99
  6613                 0.00    420.95     65.95
  6615                 0.00    426.33     87.33
  6616                 0.00    425.46     64.46
  6617                 0.00    424.40     81.40
  6618                 0.00    426.45     78.45
  662                  0.00    427.12     99.12
  6620                 0.00    425.18    117.18
  6621                 0.00    425.18     97.18
  6622                 0.00    425.18     88.18
  6623                 0.00    425.18     74.18
  6624                 0.00    425.18     73.18
  6625                 0.00    423.95    111.95
  6626                 0.00    424.35    103.35
  6627                 0.00    420.80     99.80
  6628                 0.00    423.47     84.47
  6629                 0.00    425.90     85.90
  663                  0.00    426.21     85.21
  6630                 0.00    426.20      1.34
  6632                 0.00    426.85     86.85
  6633                 0.00    428.08     65.44
  6634                 0.00    428.18     57.18
  6635                 0.00    427.84     75.84
  6636                 0.00    427.84     71.84
  6637                 0.00    427.65     60.65
  6639                 0.00    425.31     65.31
  664                  0.00    425.32     77.32
  6640                 0.00    425.31     65.31
  6641                 0.00    425.31     66.63
  6642                 0.00    425.31     69.31
  6643                 0.00    425.54     73.54
  6644                 0.00    425.68     73.68
  6645                 0.00    425.75     75.75
  6646                 0.00    421.01     73.99
  6648                 0.00    421.28     75.27
  6649                 0.00    423.07     84.07
  665                  0.00    424.84     79.84
  666                  0.00    426.48     86.48
  6665                 0.00    426.85     61.71
  6666                 0.00    427.43     59.77
  667                  0.00    425.66     73.66
  668                  0.00    423.41     93.41
  669                  0.00    425.64     80.64
  1                   59.00    427.60     97.60
  10                   0.00    425.54     73.54
  100                  0.00    425.31     70.31
  100B                 0.00    425.31     67.31
  101                 99.00    420.66     67.66
  103                 54.00    418.38     79.38
  104                174.00    418.17     79.17
  105                 48.00    420.94     65.94
  106                 58.00    420.87     65.87
  107                 77.00    426.03     87.03
  108                 56.00    425.56     90.00
  109                  0.00    426.16     89.16
  11B                152.00    424.64     81.64
  110                 63.00    426.37     80.37
  111                  0.00    426.08     88.10
  112                  0.00    426.23     84.23
  113                  0.00    425.68    102.68
  114                 57.00    424.82     76.82
  115                 53.00    424.54     78.54
  116                  0.00    424.72     79.72
  117                 82.00    424.29     81.29
  118                  0.00    424.40     85.40
  119                  0.00    424.40    101.59
  12                   0.00    423.90     93.56
  121                 63.00    425.05     75.05
  122                  0.00    424.72     77.72
  123                  0.00    424.72     78.72
  125                  0.00    425.00     74.00
  126                 51.00    424.14     76.14
  127                156.00    422.06     78.73
  128                  0.00    425.39     63.39
  129                  0.00    424.29     68.29
  130                131.00    423.66     82.58
  130B                73.00    423.99     70.99
  132                 57.00    416.84     83.84
  134                 60.00    420.51     99.51
  135                 57.00    418.60    102.60
  137                 62.00    414.26    105.26
  139                 66.00    422.98     62.98
  14                  47.00    422.74     84.74
  140                  0.00    423.21     72.21
  141                  0.00    423.20     71.20
  142                  0.00    422.98     61.98
  143                 64.00    413.82     72.85
  144                 89.00    424.84     65.84
  146                  0.00    424.69     78.69
  147                 72.00    423.98    102.98
  148                 59.00    424.62     91.62
  149                  0.00    423.95    110.74
  15                 172.00    421.87     86.87
  150                 80.00    423.49    115.42
  151                  0.00    423.26    118.02
  152                 65.00    421.52    111.50
  153                  0.00    422.11    112.11
  154                  0.00    425.18    100.18
  157                  0.00    425.18    122.18
  158A                 0.00    425.18    104.18
  158B                 0.00    425.18    104.18
  16B                117.00    422.91     88.91
  160                  0.00    427.63     60.63
  162                  0.00    427.53     59.53
  163                 84.00    427.16     53.16
  164                  0.00    427.32     67.66
  165                 66.00    426.85     65.55
  166                 92.00    426.85     65.84
  167                  0.00    426.85     56.21
  169                  0.00    427.25     60.75
  17A                  0.00    422.16     87.16
  170                102.00    427.73     68.73
  17B                176.00    422.03     87.03
  171                  0.00    427.84     75.84
  172                  0.00    427.84     87.84
  18B                  0.00    422.03     97.03
  19                   0.00    428.08     70.08
  2                    0.00    427.22    101.22
  20                  87.00    427.79     63.79
  2002                 0.00    425.64     75.64
  2003                 0.00    425.64     75.64
  21                  58.00    427.61     64.88
  22                  76.00    427.60     66.00
  222                 68.00    427.27     77.27
  24                   0.00    427.08     83.08
  25                   0.00    426.82     81.82
  26                   0.00    426.45     78.45
  27                   0.00    426.56     76.56
  28                  60.00    426.28     78.28
  29                  49.00    425.57     69.57
  3                    0.00    426.74     86.39
  30                   0.00    425.49     64.49
  3002                 0.00    427.79     41.79
  3004                 0.00    427.79     41.79
  3005                 0.00    427.79     41.79
  3008                 0.00    427.79     42.79
  3012                 0.00    427.79     57.06
  3013                 0.00    427.79     62.86
  3016                93.00    427.92     62.92
  3017               135.00    428.39     46.39
  3018                70.00    427.71     50.71
  3019                 0.00    427.79     58.40
  3020                 0.00    427.79     59.68
  3024                 0.00    427.79     62.85
  31                  57.00    425.26     67.47
  3152                 0.00    427.79     61.59
  32                   0.00    425.35     67.35
  34                  55.00    425.07     74.05
  35                   0.00    425.18     88.18
  36                   0.00    425.18     97.18
  39                   0.00    425.18    112.18
  41                   0.00    425.18    118.18
  46                 179.00    427.95     51.95
  47                   0.00    427.25     69.07
  48                   0.00    426.38     82.38
  49                  85.00    423.51     71.51
  5                    0.00    426.46     79.46
  52                  75.00    423.49     72.49
  53                  93.00    426.76     70.76
  54                   0.00    427.91     82.91
  55                   0.00    427.27     97.27
  56                  53.00    427.11     93.11
  58                 100.00    426.47     93.47
  59                   0.00    426.47     97.47
  6                    0.00    425.68     73.68
  60                   0.00    426.74     81.74
  61                   0.00    426.74     87.74
  62                   0.00    425.35     71.35
  64                  64.00    426.98     95.98
  65                   0.00    426.85     86.85
  66                   0.00    426.84     87.84
  67                   0.00    426.63     94.63
  68                   0.00    426.20     87.20
  69                  49.00    425.63     74.63
  7                   67.00    425.69     72.69
  70                 162.00    424.64     84.64
  71                  78.00    424.41     87.41
  72                 102.00    425.35     69.35
  73                 182.00    425.52     70.52
  77                 121.00    421.70     65.70
  78                   0.00    425.35     85.21
  79                  44.00    425.69     72.69
  8                   66.00    425.51     75.51
  80                   0.00    425.20     76.20
  81                  81.00    418.99     59.99
  82                 129.00    420.24     62.24
  85                  56.00    423.22     84.22
  86                   0.00    423.47     86.47
  87                 116.00    425.39     65.39
  88                   0.00    425.36     72.36
  89                  80.00    425.31     58.31
  90                   0.00    425.31     69.31
  91                   0.00    425.31     53.31
  92                   0.00    425.31     65.31
  91B                  0.00    425.31     65.31
  94                  81.00    422.39     83.39
  95                   0.00    420.59     77.59
  97                 135.00    412.94     81.94
  99                 144.00    422.71     72.71
  74                  81.00    423.08     64.37
  1074                 0.00    425.50     67.50
  11A                141.00    418.68     75.68
  1011                 0.00    418.91     75.91
  0                -6465.00    429.00      0.00  Reservoir
   
   
  Link Results:
  ----------------------------------------------
                       Flow  Velocity  Headloss
  Link                 m3/h       m/s    /1000m
  ----------------------------------------------
  TU1                 -0.00      0.00      0.00
  TU10                48.00      0.52      1.40
  TU100              345.00      0.76      1.09
  TU101              345.00      0.49      0.37
  TU102                0.00      0.00      0.00
  TU103              345.00      0.49      0.37
  TU104              409.00      0.58      0.50
  TU105             2667.00      1.16      0.91
  TU106             2667.00      1.16      0.91
  TU107                0.00      0.00      0.00
  TU108             2667.00      1.16      0.91
  TU109             3076.00      1.34      1.18
  TU11               205.00      0.94      2.45
  TU110             3076.00      1.34      1.18
  TU111                0.00      0.00      0.00
  TU112              100.00      0.73      2.06
  TU113              153.00      0.81      2.06
  TU114              153.00      0.81      2.06
  TU115             3288.00      1.16      0.80
  TU116             3288.00      1.16      0.80
  TU117               93.00      1.00      4.64
  TU118                0.00      0.00      0.00
  TU119             3288.00      1.16      0.80
  TU12               174.00      1.99     16.80
  TU120             3381.00      1.20      0.84
  TU121                0.00      0.00      0.00
  TU122                0.00      0.00      0.00
  TU123               -0.00      0.00      0.00
  TU124               75.00      0.86      3.59
  TU125              160.00      1.17      4.85
  TU126              160.00      0.73      1.56
  TU127              160.00      0.73      1.56
  TU128                0.00      0.00      0.00
  TU129                0.00      0.00      0.00
  TU13               228.00      1.67      9.30
  TU130               66.00      0.29      0.28
  TU131              158.00      0.69      1.35
  TU132                0.00      0.00      0.00
  TU133              158.00      0.69      1.35
  TU134               -0.00      0.00      0.00
  TU135              242.00      0.53      0.57
  TU136              242.00      0.53      0.57
  TU137              402.00      0.57      0.49
  TU138              504.00      0.71      0.74
  TU139              504.00      0.50      0.30
  TU14               480.00      1.06      1.99
  TU140              753.00      0.74      0.64
  TU141                0.00      0.00      0.00
  TU142              223.00      0.60      0.80
  TU143               -0.00      0.00      0.00
  TU144               -0.00      0.00      0.00
  TU145               -0.00      0.00      0.00
  TU146               -0.00      0.00      0.00
  TU147               -0.00      0.00      0.00
  TU148                0.00      0.00      0.00
  TU149               -0.00      0.00      0.00
  TU15                -0.00      0.00      0.00
  TU150               -0.00      0.00      0.00
  TU151               -0.00      0.00      0.00
  TU152              144.00      1.64     11.85
  TU15301            421.00      0.60      0.53
  TU15302            340.00      0.48      0.36
  TU1074              81.00      1.07      5.82
  TU154              603.00      0.59      0.42
  TU155                0.00      0.00      0.00
  TU156              603.00      0.59      0.42
  TU157              826.00      0.81      0.75
  TU158                0.00      0.00      0.00
  TU159              826.00      0.81      0.75
  TU16              6465.00      1.17      0.54
  TU160               66.00      1.17      8.34
  TU161              892.00      0.88      0.87
  TU162             1775.00      1.28      1.46
  TU163             1664.00      1.20      1.29
  TU164             1708.00      1.23      1.35
  TU166               81.00      1.67     17.36
  TU167              129.00      1.70     13.66
  TU168              129.00      1.70     13.66
  TU169              210.00      1.77     11.28
  TU17                56.00      1.00      6.18
  TU170              210.00      0.96      2.56
  TU171             1454.00      1.05      1.01
  TU17201            276.00      3.63     56.09
  TU17202            135.00      1.78     14.85
  TU1011A            141.00      1.85     16.09
  TU173              276.00      2.02     13.24
  TU174               81.00      1.44     12.13
  TU175              357.00      1.63      6.79
  TU176              945.00      0.93      0.96
  TU177             1097.00      1.08      1.27
  TU178              945.00      0.93      0.96
  TU179              348.00      0.99      2.03
  TU18                56.00      0.64      2.11
  TU180              176.00      0.50      0.58
  TU181                0.00      0.00      0.00
  TU182              176.00      0.81      1.85
  TU183                0.00      0.00      0.00
  TU184                0.00      0.00      0.00
  TU185              462.00      1.02      1.86
  TU186              158.00      0.43      0.43
  TU187              242.00      0.53      0.57
  TU188             1681.00      1.21      1.32
  TU189             1681.00      1.21      1.32
  TU19                77.00      1.37     11.06
  TU190               65.00      0.85      3.90
  TU191                0.00      0.00      0.00
  TU192                0.00      0.00      0.00
  TU193                0.00      0.00      0.00
  TU194               -0.00      0.00      0.00
  TU195                0.00      0.00      0.00
  TU196                0.00      0.00      0.00
  TU197                0.00      0.00      0.00
  TU198                0.00      0.00      0.00
  TU199                0.00      0.00      0.00
  TU2                172.00      1.96     16.45
  TU20               133.00      0.97      3.46
  TU200               -0.00      0.00      0.00
  TU201                0.00      0.00      0.00
  TU203               70.00      1.18      8.11
  TU204             2103.00      0.92      0.59
  TU205             2196.00      0.96      0.63
  TU21                65.00      0.55      1.33
  TU22              1814.00      1.00      0.79
  TU23              1882.00      1.04      0.85
  TU24              1958.00      1.08      0.91
  TU25              2016.00      1.11      0.96
  TU26              1047.00      1.03      1.16
  TU27              1047.00      1.03      1.16
  TU28              1096.00      1.08      1.27
  TU29              1156.00      1.14      1.40
  TU3                  0.00      0.00      0.00
  TU30                 0.00      0.00      0.00
  TU31                -0.00      0.00      0.00
  TU32                82.00      0.94      4.23
  TU33                82.00      0.38      0.46
  TU34               135.00      0.62      1.14
  TU35                 0.00      0.00      0.00
  TU36                 0.00      0.00      0.00
  TU37               135.00      0.38      0.36
  TU38               192.00      0.54      0.68
  TU39               156.00      1.78     13.73
  TU4                224.00      0.32      0.17
  TU40               207.00      1.51      7.78
  TU41               399.00      0.88      1.42
  TU42                84.00      0.58      1.32
  TU43               462.00      0.65      0.63
  TU44               462.00      0.65      0.63
  TU45               525.00      0.74      0.79
  TU46               525.00      0.74      0.79
  TU47                -0.00      0.00      0.00
  TU48                 0.00      0.00      0.00
  TU49                 0.00      0.00      0.00
  TU5                224.00      0.32      0.17
  TU50                 0.00      0.00      0.00
  TU51                 0.00      0.00      0.00
  TU52                 0.00      0.00      0.00
  TU53                 0.00      0.00      0.00
  TU54                 0.00      0.00      0.00
  TU55                 0.00      0.00      0.00
  TU56                 0.00      0.00      0.00
  TU57                 0.00      0.00      0.00
  TU58                55.00      0.98      5.98
  TU59                55.00      0.16      0.07
  TU6                462.00      0.65      0.63
  TU60                65.00      1.34     11.60
  TU61                 0.00      0.00      0.00
  TU62               145.00      0.77      1.87
  TU63                 0.00      0.00      0.00
  TU64               145.00      0.77      1.87
  TU65                72.00      1.48     13.99
  TU66               217.00      0.72      1.24
  TU67               276.00      0.78      1.32
  TU68               276.00      0.78      1.33
  TU69               331.00      0.47      0.34
  TU7                121.00      2.04     22.15
  TU70               388.00      0.55      0.46
  TU71               388.00      0.55      0.46
  TU72               366.00      0.81      1.21
  TU73               497.00      1.10      2.12
  TU74               570.00      1.26      2.73
  TU75               570.00      1.26      2.73
  TU76               659.00      1.46      3.57
  TU77               659.00      1.46      3.57
  TU78                62.00      1.28     10.64
  TU79               119.00      1.56     11.77
  TU8                 99.00      1.07      5.20
  TU80                60.00      1.24     10.02
  TU81               179.00      1.51      8.41
  TU82                64.00      1.14      7.88
  TU83               121.00      1.59     12.14
  TU84                 0.00      0.00      0.00
  TU85                66.00      0.48      0.97
  TU86                66.00      0.30      0.31
  TU87                66.00      0.35      0.45
  TU88               187.00      0.41      0.36
  TU89                56.00      1.00      6.18
  TU9                 58.00      0.98      5.75
  TU90                 0.00      0.00      0.00
  TU91                56.00      0.64      2.11
  TU92               218.00      1.00      2.74
  TU93               218.00      0.62      0.86
  TU94                78.00      0.89      3.86
  TU95               296.00      0.84      1.51
  TU96                 0.00      0.00      0.00
  TU97                49.00      0.87      4.85
  TU98                49.00      0.56      1.66
  TU99               345.00      0.76      1.09
  TU4000               0.00      0.00      0.00
   
  Analysis ended Fri Dec  1 08:58:19 2023
