  Page 1                                    Fri Dec  1 09:09:57 2023

  ******************************************************************
  *                           E P A N E T                          *
  *                   Hydraulic and Water Quality                  *
  *                   Analysis for Pipe Networks                   *
  *                         Version 2.2                            *
  ******************************************************************
  
  Analysis begun Fri Dec  1 09:09:57 2023

   
  Node Results:
  ----------------------------------------------
                     Demand      Head  Pressure
  Node                 m3/h         m         m
  ----------------------------------------------
  3661                 0.00    428.89     50.75
  482                  0.00    428.80     82.80
  661                  0.00    428.71     98.71
  6610                 0.00    426.94      2.93
  6611                 0.00    427.26     92.26
  6612                 0.00    428.02     65.65
  6613                 0.00    426.37     71.37
  6615                 0.00    428.85     89.85
  6616                 0.00    428.74     67.74
  6617                 0.00    428.58     85.58
  6618                 0.00    428.81     80.81
  662                  0.00    428.58    100.58
  6620                 0.00    427.42    119.42
  6621                 0.00    428.22    100.22
  6622                 0.00    428.40     91.40
  6623                 0.00    428.59     77.59
  6624                 0.00    428.63     76.63
  6625                 0.00    428.42    116.42
  6626                 0.00    428.53    107.53
  6627                 0.00    428.71    107.71
  6628                 0.00    428.40     89.40
  6629                 0.00    428.40     88.40
  663                  0.00    428.35     87.35
  6630                 0.00    428.40      3.54
  6632                 0.00    428.43     88.43
  6633                 0.00    428.84     66.20
  6634                 0.00    428.87     57.87
  6635                 0.00    428.85     76.85
  6636                 0.00    428.85     72.85
  6637                 0.00    428.80     61.80
  6639                 0.00    427.79     67.79
  664                  0.00    428.15     80.15
  6640                 0.00    427.62     67.62
  6641                 0.00    427.91     69.23
  6642                 0.00    427.91     71.91
  6643                 0.00    428.13     76.13
  6644                 0.00    428.17     76.17
  6645                 0.00    428.19     78.19
  6646                 0.00    426.12     79.10
  6648                 0.00    426.40     80.39
  6649                 0.00    428.08     89.08
  665                  0.00    428.08     83.08
  666                  0.00    428.40     88.40
  6665                 0.00    428.14     63.00
  6666                 0.00    428.69     61.03
  667                  0.00    428.16     76.16
  668                  0.00    428.71     98.71
  669                  0.00    428.40     83.40
  1                    0.00    428.72     98.72
  10                  66.00    427.74     75.74
  100                  0.00    427.91     72.91
  100B                 0.00    427.62     69.62
  101                  0.00    426.37     73.37
  103                 51.00    427.15     88.15
  104                  0.00    427.15     88.15
  105                 98.00    426.34     71.34
  106                 56.00    426.29     71.29
  107                  0.00    428.85     89.85
  108                  0.00    428.85     93.29
  109                  0.00    428.85     91.85
  11B                  0.00    428.04     85.04
  110                  0.00    428.80     82.80
  111                  0.00    428.78     90.80
  112                  0.00    428.79     86.79
  113                  0.00    428.75    105.75
  114                 60.00    428.63     80.63
  115                 51.00    428.58     82.58
  116                  0.00    428.61     83.61
  117                  0.00    428.58     85.58
  118                  0.00    428.58     89.58
  119                  0.00    428.58    105.77
  12                   0.00    427.81     97.47
  121                  0.00    428.70     78.70
  122                  0.00    428.61     81.61
  123                  0.00    428.61     82.61
  125                  0.00    428.70     77.70
  126                  0.00    428.70     80.70
  127                  0.00    428.70     85.37
  128                  0.00    428.73     66.73
  129                  0.00    428.73     72.73
  130                  0.00    428.72     87.64
  130B                 0.00    428.72     75.72
  132                  0.00    427.76     94.76
  134                  0.00    428.71    107.71
  135                  0.00    428.71    112.71
  137                  0.00    428.71    119.71
  139                  0.00    428.71     68.71
  14                  86.00    427.43     89.43
  140                  0.00    428.71     77.71
  141                  0.00    428.71     76.71
  142                  0.00    428.71     67.71
  143                 42.00    426.35     85.38
  144                  0.00    428.73     69.73
  146                  0.00    428.58     82.58
  147                  0.00    428.53    107.53
  148                  0.00    428.57     95.57
  149                  0.00    428.42    115.21
  15                   0.00    427.26     92.26
  150                  0.00    428.28    120.21
  151                  0.00    427.99    122.75
  152                 74.00    425.79    115.77
  153                  0.00    426.54    116.54
  154                  0.00    428.14    103.14
  157                  0.00    427.42    124.42
  158A                73.00    416.06     95.06
  158B                73.00    416.03     95.03
  16B                  0.00    427.50     93.50
  160                 62.00    428.78     61.78
  162                  0.00    428.74     60.74
  163                  0.00    428.69     54.69
  164                  0.00    428.59     68.93
  165                 65.00    428.14     66.84
  166                 89.00    428.14     67.13
  167                  0.00    428.14     57.50
  169                  0.00    428.52     62.02
  17A                207.00    427.09     92.09
  170                  0.00    428.82     69.82
  17B                  0.00    427.09     92.09
  171                  0.00    428.85     76.85
  172                  0.00    428.85     88.85
  18B                  0.00    427.09    102.09
  19                   0.00    428.84     70.84
  2                    0.00    428.61    102.61
  20                   0.00    428.89     64.89
  2002                 0.00    428.40     78.40
  2003                 0.00    428.40     78.40
  21                  47.00    428.88     66.15
  22                   0.00    428.88     67.28
  222                  0.00    428.86     78.86
  24                   0.00    428.85     84.85
  25                   0.00    428.83     83.83
  26                   0.00    428.81     80.81
  27                   0.00    428.81     78.81
  28                   0.00    428.80     80.80
  29                   0.00    428.74     72.74
  3                    0.00    428.48     88.13
  30                   0.00    428.74     67.74
  3002                 0.00    428.89     42.89
  3004                 0.00    428.89     42.89
  3005                 0.00    428.89     42.89
  3008                 0.00    428.89     43.89
  3012                 0.00    428.89     58.16
  3013                 0.00    428.89     63.96
  3016                 0.00    428.89     63.89
  3017                 0.00    428.92     46.92
  3018                 0.00    428.87     51.87
  3019                 0.00    428.89     59.50
  3020                 0.00    428.89     60.78
  3024                 0.00    428.89     63.95
  31                   0.00    428.66     70.87
  3152                 0.00    428.89     62.69
  32                   0.00    428.70     70.70
  34                   0.00    428.59     77.57
  35                   0.00    428.40     91.40
  36                   0.00    428.22    100.22
  39                   0.00    427.87    114.87
  41                   0.00    427.16    120.16
  46                   0.00    428.87     52.87
  47                   0.00    428.52     70.34
  48                   0.00    428.80     84.80
  49                   0.00    428.80     76.80
  5                    0.00    428.41     81.41
  52                   0.00    428.80     77.80
  53                   0.00    428.87     72.87
  54                   0.00    428.80     83.80
  55                   0.00    428.72     98.72
  56                   0.00    428.72     94.72
  58                   0.00    428.72     95.72
  59                   0.00    428.72     99.72
  6                    0.00    428.17     76.17
  60                   0.00    428.48     83.48
  61                   0.00    428.48     89.48
  62                 105.00    423.99     69.99
  64                   0.00    428.52     97.52
  65                  76.00    428.14     88.14
  66                  86.00    428.43     89.43
  67                 113.00    428.40     96.40
  68                   0.00    428.40     89.40
  69                   0.00    428.40     77.40
  7                   69.00    428.23     75.23
  70                   0.00    428.40     88.40
  71                   0.00    428.40     91.40
  72                   0.00    428.08     72.08
  73                   0.00    428.12     73.12
  77                   0.00    428.08     72.08
  78                   0.00    428.08     87.94
  79                   0.00    428.23     75.23
  8                   72.00    427.90     77.90
  80                  90.00    428.02     79.02
  81                   0.00    426.40     67.40
  82                 130.00    425.35     67.35
  85                   0.00    428.40     89.40
  86                   0.00    428.40     91.40
  87                   0.00    428.05     68.05
  88                   0.00    428.02     75.02
  89                  78.00    427.95     60.95
  90                   0.00    427.91     71.91
  91                   0.00    427.79     55.79
  92                   0.00    426.94     66.94
  91B                175.00    426.61     66.61
  94                   0.00    428.08     89.08
  95                   0.00    428.08     85.08
  97                   0.00    428.08     97.08
  99                   0.00    427.95     77.95
  74                   0.00    428.11     69.40
  1074                 0.00    428.11     70.11
  11A                  0.00    428.08     85.08
  1011                 0.00    428.08     85.08
  0                -2194.00    429.00      0.00  Reservoir
   
   
  Link Results:
  ----------------------------------------------
                       Flow  Velocity  Headloss
  Link                 m3/h       m/s    /1000m
  ----------------------------------------------
  TU1                 -0.00      0.00      0.00
  TU10                98.00      1.06      5.10
  TU100              113.00      0.25      0.14
  TU101              199.00      0.28      0.14
  TU102               76.00      1.35     10.80
  TU103              275.00      0.39      0.24
  TU104              275.00      0.39      0.24
  TU105             1283.00      0.56      0.24
  TU106             1283.00      0.56      0.24
  TU107                0.00      0.00      0.00
  TU108             1283.00      0.56      0.24
  TU109             1558.00      0.68      0.34
  TU11               154.00      0.70      1.45
  TU110             1558.00      0.68      0.34
  TU111                0.00      0.00      0.00
  TU112               -0.00      0.00      0.00
  TU113                0.00      0.00      0.00
  TU114                0.00      0.00      0.00
  TU115             1558.00      0.55      0.20
  TU116             1558.00      0.55      0.20
  TU117               -0.00      0.00      0.00
  TU118                0.00      0.00      0.00
  TU119             1558.00      0.55      0.20
  TU12                 0.00      0.00      0.00
  TU120             1558.00      0.55      0.20
  TU121                0.00      0.00      0.00
  TU122                0.00      0.00      0.00
  TU123               -0.00      0.00      0.00
  TU124                0.00      0.00      0.00
  TU125               -0.00      0.00      0.00
  TU126               -0.00      0.00      0.00
  TU127               -0.00      0.00      0.00
  TU128                0.00      0.00      0.00
  TU129                0.00      0.00      0.00
  TU13                51.00      0.37      0.61
  TU130               65.00      0.28      0.27
  TU131              154.00      0.67      1.29
  TU132                0.00      0.00      0.00
  TU133              154.00      0.67      1.29
  TU134              175.00      1.89     14.81
  TU135              154.00      0.34      0.25
  TU136              216.00      0.48      0.46
  TU137              216.00      0.31      0.16
  TU138              216.00      0.31      0.16
  TU139              216.00      0.21      0.07
  TU14               291.00      0.64      0.80
  TU140              216.00      0.21      0.07
  TU141              105.00      1.77     17.05
  TU142              105.00      0.28      0.20
  TU143               -0.00      0.00      0.00
  TU144               -0.00      0.00      0.00
  TU145              175.00      1.21      5.02
  TU146              175.00      0.76      1.63
  TU147              175.00      0.47      0.51
  TU148               -0.00      0.00      0.00
  TU149               -0.00      0.00      0.00
  TU15                -0.00      0.00      0.00
  TU150               -0.00      0.00      0.00
  TU151              175.00      0.25      0.11
  TU152                0.00      0.00      0.00
  TU15301            253.00      0.36      0.21
  TU15302            253.00      0.36      0.21
  TU1074               0.00      0.00      0.00
  TU154              253.00      0.25      0.09
  TU155               66.00      1.11      7.28
  TU156              319.00      0.31      0.13
  TU157              424.00      0.42      0.22
  TU158                0.00      0.00      0.00
  TU159              424.00      0.42      0.22
  TU16              2194.00      0.40      0.07
  TU160               72.00      1.28      9.78
  TU161              496.00      0.49      0.30
  TU162              787.00      0.57      0.33
  TU163              718.00      0.52      0.28
  TU164              718.00      0.52      0.28
  TU166               -0.00      0.00      0.00
  TU167              130.00      1.71     13.85
  TU168              130.00      1.71     13.85
  TU169              130.00      1.09      4.67
  TU17                 0.00      0.00      0.00
  TU170              220.00      1.01      2.79
  TU171              498.00      0.36      0.14
  TU17201             -0.00      0.00      0.00
  TU17202              0.00      0.00      0.00
  TU1011A             -0.00      0.00      0.00
  TU173               -0.00      0.00      0.00
  TU174               -0.00      0.00      0.00
  TU175               -0.00      0.00      0.00
  TU176              498.00      0.49      0.30
  TU177              498.00      0.49      0.30
  TU178              498.00      0.49      0.30
  TU179              207.00      0.59      0.78
  TU18                 0.00      0.00      0.00
  TU180              207.00      0.59      0.78
  TU181                0.00      0.00      0.00
  TU182                0.00      0.00      0.00
  TU183                0.00      0.00      0.00
  TU184                0.00      0.00      0.00
  TU185              111.00      0.25      0.14
  TU186              154.00      0.42      0.41
  TU187              154.00      0.34      0.25
  TU188              373.00      0.27      0.08
  TU189              373.00      0.27      0.08
  TU19                 0.00      0.00      0.00
  TU190               74.00      0.97      4.94
  TU191                0.00      0.00      0.00
  TU192                0.00      0.00      0.00
  TU193                0.00      0.00      0.00
  TU194               -0.00      0.00      0.00
  TU195                0.00      0.00      0.00
  TU196                0.00      0.00      0.00
  TU197               -0.00      0.00      0.00
  TU198                0.00      0.00      0.00
  TU199                0.00      0.00      0.00
  TU2                  0.00      0.00      0.00
  TU20                 0.00      0.00      0.00
  TU200               -0.00      0.00      0.00
  TU201                0.00      0.00      0.00
  TU203                0.00      0.00      0.00
  TU204              420.00      0.18      0.03
  TU205              420.00      0.18      0.03
  TU21                74.00      0.62      1.68
  TU22               373.00      0.21      0.04
  TU23               373.00      0.21      0.04
  TU24               373.00      0.21      0.04
  TU25               420.00      0.23      0.05
  TU26               262.00      0.26      0.09
  TU27               262.00      0.26      0.09
  TU28               262.00      0.26      0.09
  TU29               262.00      0.26      0.09
  TU3                  0.00      0.00      0.00
  TU30                 0.00      0.00      0.00
  TU31                -0.00      0.00      0.00
  TU32                 0.00      0.00      0.00
  TU33                 0.00      0.00      0.00
  TU34                51.00      0.23      0.20
  TU35                -0.00      0.00      0.00
  TU36                 0.00      0.00      0.00
  TU37                51.00      0.14      0.06
  TU38               111.00      0.32      0.25
  TU39                -0.00      0.00      0.00
  TU4                253.00      0.36      0.21
  TU40                 0.00      0.00      0.00
  TU41               111.00      0.25      0.14
  TU42                 0.00      0.00      0.00
  TU43               111.00      0.16      0.05
  TU44               111.00      0.16      0.05
  TU45               111.00      0.16      0.05
  TU46               111.00      0.16      0.05
  TU47                -0.00      0.00      0.00
  TU48               146.00      1.92     17.16
  TU49               146.00      1.23      5.78
  TU5                253.00      0.36      0.21
  TU50                 0.00      0.00      0.00
  TU51               146.00      0.78      1.89
  TU52               146.00      0.48      0.60
  TU53               146.00      0.48      0.60
  TU54                 0.00      0.00      0.00
  TU55               146.00      0.48      0.60
  TU56                 0.00      0.00      0.00
  TU57               146.00      0.41      0.42
  TU58                 0.00      0.00      0.00
  TU59               146.00      0.41      0.42
  TU6                111.00      0.16      0.05
  TU60                74.00      1.53     14.71
  TU61                 0.00      0.00      0.00
  TU62                74.00      0.39      0.55
  TU63                 0.00      0.00      0.00
  TU64                74.00      0.39      0.55
  TU65                 0.00      0.00      0.00
  TU66                74.00      0.24      0.18
  TU67                74.00      0.21      0.12
  TU68                74.00      0.21      0.12
  TU69               220.00      0.31      0.16
  TU7                  0.00      0.00      0.00
  TU70               220.00      0.31      0.16
  TU71               220.00      0.31      0.16
  TU72                42.00      0.09      0.02
  TU73                42.00      0.09      0.02
  TU74                42.00      0.09      0.02
  TU75                42.00      0.09      0.02
  TU76                42.00      0.09      0.02
  TU77                42.00      0.09      0.03
  TU78                 0.00      0.00      0.00
  TU79                 0.00      0.00      0.00
  TU8                  0.00      0.00      0.00
  TU80                 0.00      0.00      0.00
  TU81                 0.00      0.00      0.00
  TU82                42.00      0.75      3.67
  TU83                42.00      0.55      1.77
  TU84                 0.00      0.00      0.00
  TU85                 0.00      0.00      0.00
  TU86                 0.00      0.00      0.00
  TU87                 0.00      0.00      0.00
  TU88                42.00      0.09      0.03
  TU89                 0.00      0.00      0.00
  TU9                 56.00      0.94      5.40
  TU90                 0.00      0.00      0.00
  TU91                -0.00      0.00      0.00
  TU92                -0.00      0.00      0.00
  TU93                 0.00      0.00      0.00
  TU94                 0.00      0.00      0.00
  TU95                 0.00      0.00      0.00
  TU96                 0.00      0.00      0.00
  TU97                 0.00      0.00      0.00
  TU98                 0.00      0.00      0.00
  TU99                 0.00      0.00      0.00
  TU4000              73.00      0.96      4.81
   
  Analysis ended Fri Dec  1 09:09:57 2023
