  Page 1                                    Fri Dec  1 08:45:35 2023

  ******************************************************************
  *                           E P A N E T                          *
  *                   Hydraulic and Water Quality                  *
  *                   Analysis for Pipe Networks                   *
  *                         Version 2.2                            *
  ******************************************************************
  
  Analysis begun Fri Dec  1 08:45:35 2023

   
  Node Results:
  ----------------------------------------------
                     Demand      Head  Pressure
  Node                 m3/h         m         m
  ----------------------------------------------
  3661                 0.00    428.91     50.77
  482                  0.00    428.96     82.96
  661                  0.00    428.19     98.19
  6610                 0.00    428.54      1.92
  6611                 0.00    428.74     93.74
  6612                 0.00    428.65     66.28
  6613                 0.00    428.56     73.56
  6615                 0.00    428.65     89.65
  6616                 0.00    428.54     67.54
  6617                 0.00    428.79     85.79
  6618                 0.00    428.79     80.79
  662                  0.00    428.86    100.86
  6620                 0.00    428.50    120.50
  6621                 0.00    428.50    100.50
  6622                 0.00    428.50     91.50
  6623                 0.00    428.50     77.50
  6624                 0.00    428.51     76.51
  6625                 0.00    428.47    116.47
  6626                 0.00    428.47    107.47
  6627                 0.00    428.19    107.19
  6628                 0.00    427.39     88.39
  6629                 0.00    428.10     88.10
  663                  0.00    428.81     87.81
  6630                 0.00    428.48      3.62
  6632                 0.00    428.66     88.66
  6633                 0.00    428.94     66.30
  6634                 0.00    428.95     57.95
  6635                 0.00    428.96     76.96
  6636                 0.00    428.96     72.96
  6637                 0.00    428.96     61.96
  6639                 0.00    428.58     68.58
  664                  0.00    428.79     80.79
  6640                 0.00    428.54     68.54
  6641                 0.00    428.61     69.93
  6642                 0.00    428.61     72.61
  6643                 0.00    428.70     76.70
  6644                 0.00    428.72     76.72
  6645                 0.00    428.73     78.73
  6646                 0.00    428.79     81.77
  6648                 0.00    428.79     82.78
  6649                 0.00    428.65     89.65
  665                  0.00    428.78     83.78
  666                  0.00    428.48     88.48
  6665                 0.00    428.96     63.82
  6666                 0.00    428.96     61.30
  667                  0.00    428.72     76.72
  668                  0.00    428.19     98.19
  669                  0.00    427.95     82.95
  1                    0.00    428.90     98.90
  10                   0.00    428.70     76.70
  100                  0.00    428.61     73.61
  100B                79.00    428.09     70.09
  101                 56.00    428.45     75.45
  103                  0.00    428.73     89.73
  104                  0.00    428.73     89.73
  105                  0.00    428.56     73.56
  106                  0.00    428.56     73.56
  107                  0.00    428.65     89.65
  108                 62.00    427.72     92.16
  109                  0.00    428.44     91.44
  11B                  0.00    428.78     85.78
  110                  0.00    428.79     82.79
  111                  0.00    428.79     90.81
  112                  0.00    428.79     86.79
  113                  0.00    428.79    105.79
  114                  0.00    428.79     80.79
  115                  0.00    428.79     82.79
  116                  0.00    428.79     83.79
  117                  0.00    428.79     85.79
  118                  0.00    428.79     89.79
  119                  0.00    428.79    105.98
  12                   0.00    428.76     98.42
  121                  0.00    428.79     78.79
  122                  0.00    428.79     81.79
  123                  0.00    428.79     82.79
  125                  0.00    428.79     77.79
  126                  0.00    428.79     80.79
  127                  0.00    428.79     85.46
  128                  0.00    428.53     66.53
  129                  0.00    428.29     72.29
  130                155.00    428.19     87.11
  130B                72.00    428.23     75.23
  132                  0.00    428.19     95.19
  134                  0.00    428.19    107.19
  135                  0.00    428.19    112.19
  137                  0.00    428.19    119.19
  139                  0.00    428.19     68.19
  14                  55.00    428.73     90.73
  140                  0.00    428.19     77.19
  141                  0.00    428.19     76.19
  142                  0.00    428.19     67.19
  143                  0.00    428.19     87.22
  144                 82.00    428.39     69.39
  146                  0.00    428.47     82.47
  147                  0.00    428.47    107.47
  148                 67.00    428.47     95.47
  149                  0.00    428.47    115.26
  15                   0.00    428.74     93.74
  150                  0.00    428.47    120.40
  151                  0.00    428.47    123.23
  152                  0.00    428.47    118.45
  153                  0.00    428.47    118.47
  154                  0.00    428.50    103.50
  157                  0.00    428.50    125.50
  158A                 0.00    428.50    107.50
  158B                 0.00    428.50    107.50
  16B                  0.00    428.74     94.74
  160                  0.00    428.96     61.96
  162                  0.00    428.96     60.96
  163                  0.00    428.96     54.96
  164                  0.00    428.96     69.30
  165                  0.00    428.96     67.66
  166                  0.00    428.96     67.95
  167                  0.00    428.96     58.32
  169                  0.00    428.96     62.46
  17A                  0.00    428.74     93.74
  170                  0.00    428.96     69.96
  17B                  0.00    428.74     93.74
  171                  0.00    428.96     76.96
  172                  0.00    428.96     88.96
  18B                  0.00    428.74    103.74
  19                   0.00    428.94     70.94
  2                    0.00    428.86    102.86
  20                   0.00    428.91     64.91
  2002                 0.00    427.95     77.95
  2003                 0.00    427.95     77.95
  21                   0.00    428.90     66.17
  22                   0.00    428.90     67.30
  222                  0.00    428.86     78.86
  24                   0.00    428.84     84.84
  25                   0.00    428.81     83.81
  26                   0.00    428.79     80.79
  27                   0.00    428.79     78.79
  28                   0.00    428.73     80.73
  29                  63.00    428.57     72.57
  3                    0.00    428.84     88.49
  30                   0.00    428.55     67.55
  3002                 0.00    428.91     42.91
  3004                 0.00    428.91     42.91
  3005                 0.00    428.91     42.91
  3008                 0.00    428.91     43.91
  3012                 0.00    428.91     58.18
  3013                 0.00    428.91     63.98
  3016                 0.00    428.93     63.93
  3017                 0.00    428.96     46.96
  3018                 0.00    428.96     51.96
  3019                 0.00    428.91     59.52
  3020                 0.00    428.91     60.80
  3024                 0.00    428.91     63.97
  31                   0.00    428.52     70.73
  3152                 0.00    428.91     62.71
  32                   0.00    428.53     70.53
  34                  51.00    428.41     77.39
  35                   0.00    428.50     91.50
  36                   0.00    428.50    100.50
  39                   0.00    428.50    115.50
  41                   0.00    428.50    121.50
  46                   0.00    428.96     52.96
  47                   0.00    428.96     70.78
  48                   0.00    428.96     84.96
  49                   0.00    428.96     76.96
  5                    0.00    428.82     81.82
  52                   0.00    428.96     77.96
  53                   0.00    428.95     72.95
  54                   0.00    428.93     83.93
  55                   0.00    428.90     98.90
  56                   0.00    428.90     94.90
  58                   0.00    428.90     95.90
  59                   0.00    428.90     99.90
  6                   61.00    428.50     76.50
  60                   0.00    428.84     83.84
  61                   0.00    428.84     89.84
  62                 102.00    424.76     70.76
  64                   0.00    428.77     97.77
  65                   0.00    428.66     88.66
  66                  75.00    428.66     89.66
  67                   0.00    428.55     96.55
  68                   0.00    428.48     89.48
  69                   0.00    428.48     77.48
  7                    0.00    428.80     75.80
  70                 159.00    427.39     87.39
  71                  76.00    426.67     89.67
  72                   0.00    428.64     72.64
  73                   0.00    428.70     73.70
  77                   0.00    428.64     72.64
  78                   0.00    428.64     88.50
  79                   0.00    428.80     75.80
  8                    0.00    428.73     78.73
  80                   0.00    428.79     79.79
  81                   0.00    428.79     69.79
  82                   0.00    428.79     70.79
  85                   0.00    427.39     88.39
  86                   0.00    427.39     90.39
  87                   0.00    428.66     68.66
  88                   0.00    428.65     75.65
  89                  92.00    428.61     61.61
  90                   0.00    428.61     72.61
  91                   0.00    428.58     56.58
  92                   0.00    428.54     68.54
  91B                  0.00    428.54     68.54
  94                   0.00    428.65     89.65
  95                   0.00    428.35     85.35
  97                   0.00    428.16     97.16
  99                   0.00    428.61     78.61
  74                   0.00    428.70     69.99
  1074                 0.00    428.70     70.70
  11A                 86.00    428.07     85.07
  1011                 0.00    428.16     85.16
  0                -1393.00    429.00      0.00  Reservoir
   
   
  Link Results:
  ----------------------------------------------
                       Flow  Velocity  Headloss
  Link                 m3/h       m/s    /1000m
  ----------------------------------------------
  TU1                 -0.00      0.00      0.00
  TU10                 0.00      0.00      0.00
  TU100              235.00      0.52      0.54
  TU101              310.00      0.44      0.30
  TU102                0.00      0.00      0.00
  TU103              310.00      0.44      0.30
  TU104              310.00      0.44      0.30
  TU105              531.00      0.23      0.05
  TU106              531.00      0.23      0.05
  TU107                0.00      0.00      0.00
  TU108              531.00      0.23      0.05
  TU109              841.00      0.37      0.11
  TU11                56.00      0.26      0.23
  TU110              841.00      0.37      0.11
  TU111               -0.00      0.00      0.00
  TU112               -0.00      0.00      0.00
  TU113                0.00      0.00      0.00
  TU114                0.00      0.00      0.00
  TU115              841.00      0.30      0.07
  TU116              841.00      0.30      0.07
  TU117                0.00      0.00      0.00
  TU118                0.00      0.00      0.00
  TU119              841.00      0.30      0.07
  TU12                 0.00      0.00      0.00
  TU120              841.00      0.30      0.07
  TU121               -0.00      0.00      0.00
  TU122                0.00      0.00      0.00
  TU123               -0.00      0.00      0.00
  TU124                0.00      0.00      0.00
  TU125               -0.00      0.00      0.00
  TU126               -0.00      0.00      0.00
  TU127               -0.00      0.00      0.00
  TU128                0.00      0.00      0.00
  TU129                0.00      0.00      0.00
  TU13                 0.00      0.00      0.00
  TU130               -0.00      0.00      0.00
  TU131               -0.00      0.00      0.00
  TU132                0.00      0.00      0.00
  TU133               -0.00      0.00      0.00
  TU134               -0.00      0.00      0.00
  TU135               -0.00      0.00      0.00
  TU136                0.00      0.00      0.00
  TU137                0.00      0.00      0.00
  TU138                0.00      0.00      0.00
  TU139                0.00      0.00      0.00
  TU14               111.00      0.25      0.14
  TU140                0.00      0.00      0.00
  TU141              102.00      1.72     16.17
  TU142              102.00      0.28      0.19
  TU143               -0.00      0.00      0.00
  TU144               79.00      0.85      3.45
  TU145               -0.00      0.00      0.00
  TU146               79.00      0.34      0.39
  TU147               79.00      0.21      0.12
  TU148               -0.00      0.00      0.00
  TU149               -0.00      0.00      0.00
  TU15                -0.00      0.00      0.00
  TU150               -0.00      0.00      0.00
  TU151               79.00      0.11      0.03
  TU152               -0.00      0.00      0.00
  TU15301            171.00      0.24      0.10
  TU15302            171.00      0.24      0.10
  TU1074               0.00      0.00      0.00
  TU154              171.00      0.17      0.04
  TU155                0.00      0.00      0.00
  TU156              171.00      0.17      0.04
  TU157              273.00      0.27      0.10
  TU158               61.00      1.09      7.22
  TU159              334.00      0.33      0.14
  TU16              1393.00      0.25      0.03
  TU160                0.00      0.00      0.00
  TU161              334.00      0.33      0.14
  TU162              197.00      0.14      0.03
  TU163              197.00      0.14      0.03
  TU164              197.00      0.14      0.02
  TU166               -0.00      0.00      0.00
  TU167               -0.00      0.00      0.00
  TU168                0.00      0.00      0.00
  TU169                0.00      0.00      0.00
  TU17                62.00      1.10      7.44
  TU170                0.00      0.00      0.00
  TU171              197.00      0.14      0.03
  TU17201             86.00      1.13      6.49
  TU17202              0.00      0.00      0.00
  TU1011A             86.00      1.13      6.49
  TU173               86.00      0.63      1.57
  TU174               -0.00      0.00      0.00
  TU175               86.00      0.39      0.51
  TU176              111.00      0.11      0.02
  TU177              111.00      0.11      0.02
  TU178              111.00      0.11      0.02
  TU179                0.00      0.00      0.00
  TU18                62.00      0.71      2.54
  TU180                0.00      0.00      0.00
  TU181                0.00      0.00      0.00
  TU182                0.00      0.00      0.00
  TU183                0.00      0.00      0.00
  TU184                0.00      0.00      0.00
  TU185               -0.00      0.00      0.00
  TU186               -0.00      0.00      0.00
  TU187               -0.00      0.00      0.00
  TU188              490.00      0.35      0.14
  TU189              490.00      0.35      0.14
  TU19                 0.00      0.00      0.00
  TU190               -0.00      0.00      0.00
  TU191               -0.00      0.00      0.00
  TU192                0.00      0.00      0.00
  TU193                0.00      0.00      0.00
  TU194               -0.00      0.00      0.00
  TU195                0.00      0.00      0.00
  TU196                0.00      0.00      0.00
  TU197               -0.00      0.00      0.00
  TU198                0.00      0.00      0.00
  TU199                0.00      0.00      0.00
  TU2                  0.00      0.00      0.00
  TU20                62.00      0.45      0.87
  TU200               -0.00      0.00      0.00
  TU201                0.00      0.00      0.00
  TU203                0.00      0.00      0.00
  TU204              552.00      0.24      0.05
  TU205              552.00      0.24      0.05
  TU21                -0.00      0.00      0.00
  TU22               552.00      0.31      0.09
  TU23               552.00      0.31      0.09
  TU24               552.00      0.31      0.09
  TU25               552.00      0.31      0.09
  TU26               427.00      0.42      0.23
  TU27               427.00      0.42      0.23
  TU28               490.00      0.48      0.29
  TU29               490.00      0.48      0.29
  TU3                  0.00      0.00      0.00
  TU30                 0.00      0.00      0.00
  TU31                -0.00      0.00      0.00
  TU32                 0.00      0.00      0.00
  TU33                 0.00      0.00      0.00
  TU34                 0.00      0.00      0.00
  TU35                 0.00      0.00      0.00
  TU36                 0.00      0.00      0.00
  TU37                 0.00      0.00      0.00
  TU38                 0.00      0.00      0.00
  TU39                -0.00      0.00      0.00
  TU4                171.00      0.24      0.10
  TU40                -0.00      0.00      0.00
  TU41                -0.00      0.00      0.00
  TU42                 0.00      0.00      0.00
  TU43                -0.00      0.00      0.00
  TU44                -0.00      0.00      0.00
  TU45                -0.00      0.00      0.00
  TU46                -0.00      0.00      0.00
  TU47                -0.00      0.00      0.00
  TU48                 0.00      0.00      0.00
  TU49                 0.00      0.00      0.00
  TU5                171.00      0.24      0.10
  TU50                 0.00      0.00      0.00
  TU51                 0.00      0.00      0.00
  TU52                 0.00      0.00      0.00
  TU53                 0.00      0.00      0.00
  TU54                 0.00      0.00      0.00
  TU55                 0.00      0.00      0.00
  TU56                 0.00      0.00      0.00
  TU57                 0.00      0.00      0.00
  TU58                51.00      0.91      5.21
  TU59                51.00      0.14      0.06
  TU6                 -0.00      0.00      0.00
  TU60                -0.00      0.00      0.00
  TU61                 0.00      0.00      0.00
  TU62                -0.00      0.00      0.00
  TU63                 0.00      0.00      0.00
  TU64                 0.00      0.00      0.00
  TU65                 0.00      0.00      0.00
  TU66                 0.00      0.00      0.00
  TU67                67.00      0.19      0.10
  TU68                67.00      0.19      0.10
  TU69               118.00      0.17      0.05
  TU7                  0.00      0.00      0.00
  TU70               118.00      0.17      0.05
  TU71               118.00      0.17      0.05
  TU72                 0.00      0.00      0.00
  TU73               155.00      0.34      0.25
  TU74               227.00      0.50      0.51
  TU75               227.00      0.50      0.51
  TU76               309.00      0.68      0.89
  TU77               309.00      0.68      0.89
  TU78                 0.00      0.00      0.00
  TU79                 0.00      0.00      0.00
  TU8                 56.00      0.60      1.85
  TU80                 0.00      0.00      0.00
  TU81                 0.00      0.00      0.00
  TU82                 0.00      0.00      0.00
  TU83                 0.00      0.00      0.00
  TU84                 0.00      0.00      0.00
  TU85                 0.00      0.00      0.00
  TU86                 0.00      0.00      0.00
  TU87                 0.00      0.00      0.00
  TU88                 0.00      0.00      0.00
  TU89                 0.00      0.00      0.00
  TU9                  0.00      0.00      0.00
  TU90                 0.00      0.00      0.00
  TU91                -0.00      0.00      0.00
  TU92               159.00      0.73      1.54
  TU93               159.00      0.45      0.49
  TU94                76.00      0.87      3.68
  TU95               235.00      0.67      0.99
  TU96                 0.00      0.00      0.00
  TU97                 0.00      0.00      0.00
  TU98                 0.00      0.00      0.00
  TU99               235.00      0.52      0.54
  TU4000               0.00      0.00      0.00
   
  Analysis ended Fri Dec  1 08:45:35 2023
