  Page 1                                    Fri Dec  1 08:58:23 2023

  ******************************************************************
  *                           E P A N E T                          *
  *                   Hydraulic and Water Quality                  *
  *                   Analysis for Pipe Networks                   *
  *                         Version 2.2                            *
  ******************************************************************
  
  Analysis begun Fri Dec  1 08:58:23 2023

   
  Node Results:
  ----------------------------------------------
                     Demand      Head  Pressure
  Node                 m3/h         m         m
  ----------------------------------------------
  3661                 0.00    428.77     50.63
  482                  0.00    428.09     82.09
  661                  0.00    427.57     97.57
  6610                 0.00    428.00      2.02
  6611                 0.00    426.93     91.93
  6612                 0.00    428.06     65.69
  6613                 0.00    426.32     71.32
  6615                 0.00    428.62     89.62
  6616                 0.00    428.12     67.12
  6617                 0.00    428.27     85.27
  6618                 0.00    428.46     80.46
  662                  0.00    428.59    100.59
  6620                 0.00    428.04    120.04
  6621                 0.00    428.04    100.04
  6622                 0.00    428.04     91.04
  6623                 0.00    428.04     77.04
  6624                 0.00    428.05     76.05
  6625                 0.00    427.91    115.91
  6626                 0.00    427.91    106.91
  6627                 0.00    427.24    106.24
  6628                 0.00    428.56     89.56
  6629                 0.00    428.56     88.56
  663                  0.00    428.32     87.32
  6630                 0.00    428.17      3.31
  6632                 0.00    428.58     88.58
  6633                 0.00    428.82     66.18
  6634                 0.00    428.84     57.84
  6635                 0.00    428.83     76.83
  6636                 0.00    428.83     72.83
  6637                 0.00    428.79     61.79
  6639                 0.00    428.00     68.00
  664                  0.00    428.04     80.04
  6640                 0.00    428.00     68.00
  6641                 0.00    428.00     69.32
  6642                 0.00    428.00     72.00
  6643                 0.00    428.15     76.15
  6644                 0.00    428.17     76.17
  6645                 0.00    428.19     78.19
  6646                 0.00    426.98     79.96
  6648                 0.00    427.13     81.12
  6649                 0.00    427.51     88.51
  665                  0.00    427.87     82.87
  666                  0.00    428.56     88.56
  6665                 0.00    428.75     63.61
  6666                 0.00    428.78     61.12
  667                  0.00    428.17     76.17
  668                  0.00    427.57     97.57
  669                  0.00    428.56     83.56
  1                   72.00    428.70     98.70
  10                   0.00    428.15     76.15
  100                  0.00    428.00     73.00
  100B                 0.00    428.00     70.00
  101                  0.00    426.32     73.32
  103                  0.00    424.61     85.61
  104                169.00    424.42     85.42
  105                 78.00    426.30     71.30
  106                 55.00    426.24     71.24
  107                  0.00    428.62     89.62
  108                  0.00    428.62     93.06
  109                  0.00    428.62     91.62
  11B                156.00    427.79     84.79
  110                 63.00    428.44     82.44
  111                  0.00    428.41     90.43
  112                  0.00    428.42     86.42
  113                  0.00    428.36    105.36
  114                  0.00    428.27     80.27
  115                  0.00    428.27     82.27
  116                  0.00    428.27     83.27
  117                  0.00    428.27     85.27
  118                  0.00    428.27     89.27
  119                  0.00    428.27    105.46
  12                   0.00    427.54     97.20
  121                  0.00    428.28     78.28
  122                  0.00    428.27     81.27
  123                  0.00    428.27     82.27
  125                  0.00    428.27     77.27
  126                  0.00    427.82     79.82
  127                146.00    425.98     82.65
  128                  0.00    428.10     66.10
  129                  0.00    427.74     71.74
  130                158.00    427.58     86.50
  130B                75.00    427.65     74.65
  132                  0.00    427.57     94.57
  134                 58.00    426.96    105.96
  135                  0.00    427.24    111.24
  137                  0.00    427.24    118.24
  139                  0.00    427.57     67.57
  14                   0.00    427.13     89.13
  140                  0.00    427.57     76.57
  141                  0.00    427.57     75.57
  142                  0.00    427.57     66.57
  143                  0.00    427.57     86.60
  144                 83.00    427.90     68.90
  146                  0.00    427.94     81.94
  147                 52.00    427.71    106.71
  148                 65.00    427.93     94.93
  149                  0.00    427.91    114.70
  15                   0.00    426.93     91.93
  150                  0.00    427.91    119.84
  151                  0.00    427.91    122.67
  152                  0.00    427.91    117.89
  153                  0.00    427.91    117.91
  154                  0.00    428.04    103.04
  157                  0.00    428.04    125.04
  158A                 0.00    428.04    107.04
  158B                 0.00    428.04    107.04
  16B                  0.00    427.20     93.20
  160                  0.00    428.79     61.79
  162                  0.00    428.78     60.78
  163                  0.00    428.78     54.78
  164                  0.00    428.76     69.10
  165                  0.00    428.75     67.45
  166                  0.00    428.75     67.74
  167                  0.00    428.75     58.11
  169                 51.00    428.68     62.18
  17A                  0.00    426.74     91.74
  170                  0.00    428.81     69.81
  17B                  0.00    426.55     91.55
  171                  0.00    428.83     76.83
  172                  0.00    428.83     88.83
  18B                220.00    420.77     95.77
  19                   0.00    428.82     70.82
  2                    0.00    428.61    102.61
  20                   0.00    428.77     64.77
  2002                 0.00    428.56     78.56
  2003                 0.00    428.56     78.56
  21                  74.00    428.73     66.00
  22                   0.00    428.73     67.13
  222                  0.00    428.66     78.66
  24                   0.00    428.62     84.62
  25                   0.00    428.55     83.55
  26                   0.00    428.46     80.46
  27                   0.00    428.48     78.48
  28                   0.00    428.39     80.39
  29                  55.00    428.15     72.15
  3                    0.00    428.47     88.12
  30                   0.00    428.13     67.13
  3002                 0.00    428.77     42.77
  3004                 0.00    428.77     42.77
  3005                 0.00    428.77     42.77
  3008                 0.00    428.77     43.77
  3012                 0.00    428.77     58.04
  3013                 0.00    428.77     63.84
  3016                 0.00    428.80     63.80
  3017                 0.00    428.89     46.89
  3018                 0.00    428.85     51.85
  3019                 0.00    428.77     59.38
  3020                 0.00    428.77     60.66
  3024                 0.00    428.77     63.83
  31                   0.00    428.07     70.28
  3152                 0.00    428.77     62.57
  32                   0.00    428.09     70.09
  34                  59.00    427.92     76.90
  35                   0.00    428.04     91.04
  36                   0.00    428.04    100.04
  39                   0.00    428.04    115.04
  41                   0.00    428.04    121.04
  46                   0.00    428.85     52.85
  47                   0.00    428.75     70.57
  48                   0.00    427.79     83.79
  49                  67.00    425.55     73.55
  5                    0.00    428.39     81.39
  52                  73.00    425.52     74.52
  53                   0.00    428.84     72.84
  54                   0.00    428.78     83.78
  55                   0.00    428.70     98.70
  56                   0.00    428.70     94.70
  58                   0.00    428.70     95.70
  59                   0.00    428.70     99.70
  6                   60.00    427.96     75.96
  60                   0.00    428.47     83.47
  61                   0.00    428.47     89.47
  62                 103.00    424.14     70.14
  64                   0.00    428.58     97.58
  65                   0.00    428.58     88.58
  66                   0.00    428.58     89.58
  67                   0.00    428.57     96.57
  68                   0.00    428.17     89.17
  69                  58.00    427.41     76.41
  7                    0.00    428.16     75.16
  70                   0.00    428.56     88.56
  71                   0.00    428.56     91.56
  72                   0.00    428.09     72.09
  73                   0.00    428.14     73.14
  77                   0.00    428.09     72.09
  78                   0.00    428.09     87.95
  79                   0.00    428.16     75.16
  8                   66.00    427.94     77.94
  80                   0.00    428.01     79.01
  81                   0.00    427.13     68.13
  82                  93.00    426.56     68.56
  85                   0.00    428.56     89.56
  86                   0.00    428.56     91.56
  87                   0.00    428.08     68.08
  88                   0.00    428.06     75.06
  89                 101.00    428.00     61.00
  90                   0.00    428.00     72.00
  91                   0.00    428.00     56.00
  92                   0.00    428.00     68.00
  91B                  0.00    428.00     68.00
  94                   0.00    427.51     88.51
  95                   0.00    426.70     83.70
  97                   0.00    426.16     95.16
  99                 122.00    426.09     76.09
  74                   0.00    428.14     69.43
  1074                 0.00    428.14     70.14
  11A                150.00    425.91     82.91
  1011                 0.00    426.16     83.16
  0                -2582.00    429.00      0.00  Reservoir
   
   
  Link Results:
  ----------------------------------------------
                       Flow  Velocity  Headloss
  Link                 m3/h       m/s    /1000m
  ----------------------------------------------
  TU1                 -0.00      0.00      0.00
  TU10                78.00      0.84      3.37
  TU100               58.00      0.13      0.04
  TU101               58.00      0.08      0.01
  TU102                0.00      0.00      0.00
  TU103               58.00      0.08      0.02
  TU104               58.00      0.08      0.01
  TU105             1373.00      0.60      0.27
  TU106             1373.00      0.60      0.27
  TU107                0.00      0.00      0.00
  TU108             1373.00      0.60      0.27
  TU109             1431.00      0.62      0.29
  TU11               133.00      0.61      1.11
  TU110             1431.00      0.62      0.29
  TU111                0.00      0.00      0.00
  TU112               -0.00      0.00      0.00
  TU113                0.00      0.00      0.00
  TU114                0.00      0.00      0.00
  TU115             1503.00      0.53      0.19
  TU116             1503.00      0.53      0.19
  TU117                0.00      0.00      0.00
  TU118                0.00      0.00      0.00
  TU119             1503.00      0.53      0.19
  TU12               169.00      1.93     15.92
  TU120             1503.00      0.53      0.19
  TU121                0.00      0.00      0.00
  TU122                0.00      0.00      0.00
  TU123                0.00      0.00      0.00
  TU124               73.00      0.83      3.42
  TU125              140.00      1.02      3.80
  TU126              140.00      0.64      1.22
  TU127              140.00      0.64      1.22
  TU128                0.00      0.00      0.00
  TU129                0.00      0.00      0.00
  TU13               169.00      1.23      5.36
  TU130                0.00      0.00      0.00
  TU131               -0.00      0.00      0.00
  TU132               51.00      0.22      0.18
  TU133               51.00      0.22      0.18
  TU134               -0.00      0.00      0.00
  TU135               51.00      0.11      0.03
  TU136               51.00      0.11      0.03
  TU137              191.00      0.27      0.13
  TU138              191.00      0.27      0.13
  TU139              191.00      0.19      0.05
  TU14               302.00      0.67      0.85
  TU140              191.00      0.19      0.05
  TU141              103.00      1.73     16.46
  TU142              103.00      0.28      0.20
  TU143               -0.00      0.00      0.00
  TU144               -0.00      0.00      0.00
  TU145               -0.00      0.00      0.00
  TU146               -0.00      0.00      0.00
  TU147               -0.00      0.00      0.00
  TU148                0.00      0.00      0.00
  TU149               -0.00      0.00      0.00
  TU15                -0.00      0.00      0.00
  TU150               -0.00      0.00      0.00
  TU151               -0.00      0.00      0.00
  TU152              122.00      1.39      8.74
  TU15301            223.00      0.32      0.17
  TU15302            223.00      0.32      0.17
  TU1074               0.00      0.00      0.00
  TU154              223.00      0.22      0.07
  TU155                0.00      0.00      0.00
  TU156              223.00      0.22      0.07
  TU157              326.00      0.32      0.14
  TU158               60.00      1.07      7.01
  TU159              386.00      0.38      0.19
  TU16              2582.00      0.47      0.10
  TU160               66.00      1.17      8.34
  TU161              452.00      0.44      0.25
  TU162              921.00      0.66      0.44
  TU163              921.00      0.66      0.44
  TU164              921.00      0.66      0.43
  TU166               -0.00      0.00      0.00
  TU167               93.00      1.22      7.49
  TU168               93.00      1.22      7.49
  TU169               93.00      0.78      2.54
  TU17                 0.00      0.00      0.00
  TU170               93.00      0.43      0.58
  TU171              828.00      0.60      0.36
  TU17201            150.00      1.97     18.04
  TU17202              0.00      0.00      0.00
  TU1011A            150.00      1.97     18.04
  TU173              150.00      1.10      4.31
  TU174               -0.00      0.00      0.00
  TU175              150.00      0.69      1.39
  TU176              522.00      0.51      0.33
  TU177              678.00      0.67      0.52
  TU178              522.00      0.51      0.33
  TU179              220.00      0.62      0.88
  TU18                 0.00      0.00      0.00
  TU180              220.00      0.62      0.88
  TU181              220.00      1.85     12.30
  TU182              220.00      1.01      2.79
  TU183                0.00      0.00      0.00
  TU184                0.00      0.00      0.00
  TU185              146.00      0.32      0.23
  TU186               51.00      0.14      0.06
  TU187               51.00      0.11      0.03
  TU188              814.00      0.59      0.35
  TU189              814.00      0.59      0.35
  TU19                 0.00      0.00      0.00
  TU190               -0.00      0.00      0.00
  TU191                0.00      0.00      0.00
  TU192                0.00      0.00      0.00
  TU193                0.00      0.00      0.00
  TU194               -0.00      0.00      0.00
  TU195                0.00      0.00      0.00
  TU196                0.00      0.00      0.00
  TU197               -0.00      0.00      0.00
  TU198                0.00      0.00      0.00
  TU199                0.00      0.00      0.00
  TU2                  0.00      0.00      0.00
  TU20                 0.00      0.00      0.00
  TU200               -0.00      0.00      0.00
  TU201                0.00      0.00      0.00
  TU203                0.00      0.00      0.00
  TU204              888.00      0.39      0.12
  TU205              888.00      0.39      0.12
  TU21                -0.00      0.00      0.00
  TU22               814.00      0.45      0.18
  TU23               814.00      0.45      0.18
  TU24               814.00      0.45      0.18
  TU25               888.00      0.49      0.21
  TU26               550.00      0.54      0.36
  TU27               550.00      0.54      0.36
  TU28               605.00      0.59      0.43
  TU29               605.00      0.59      0.43
  TU3                  0.00      0.00      0.00
  TU30                 0.00      0.00      0.00
  TU31                -0.00      0.00      0.00
  TU32                 0.00      0.00      0.00
  TU33                 0.00      0.00      0.00
  TU34                 0.00      0.00      0.00
  TU35                 0.00      0.00      0.00
  TU36                 0.00      0.00      0.00
  TU37                 0.00      0.00      0.00
  TU38                 0.00      0.00      0.00
  TU39               146.00      1.67     12.16
  TU4                223.00      0.32      0.17
  TU40               146.00      1.07      4.10
  TU41               146.00      0.32      0.23
  TU42                 0.00      0.00      0.00
  TU43               146.00      0.21      0.08
  TU44               146.00      0.21      0.08
  TU45               209.00      0.30      0.15
  TU46               209.00      0.30      0.15
  TU47                -0.00      0.00      0.00
  TU48                 0.00      0.00      0.00
  TU49                 0.00      0.00      0.00
  TU5                223.00      0.32      0.17
  TU50                 0.00      0.00      0.00
  TU51                 0.00      0.00      0.00
  TU52                 0.00      0.00      0.00
  TU53                 0.00      0.00      0.00
  TU54                 0.00      0.00      0.00
  TU55                 0.00      0.00      0.00
  TU56                -0.00      0.00      0.00
  TU57                 0.00      0.00      0.00
  TU58                59.00      1.05      6.80
  TU59                59.00      0.17      0.08
  TU6                146.00      0.21      0.08
  TU60                -0.00      0.00      0.00
  TU61                 0.00      0.00      0.00
  TU62                -0.00      0.00      0.00
  TU63                 0.00      0.00      0.00
  TU64                 0.00      0.00      0.00
  TU65                52.00      1.07      7.72
  TU66                52.00      0.17      0.09
  TU67               117.00      0.33      0.28
  TU68               117.00      0.33      0.28
  TU69               176.00      0.25      0.11
  TU7                  0.00      0.00      0.00
  TU70               176.00      0.25      0.11
  TU71               176.00      0.25      0.11
  TU72                58.00      0.13      0.04
  TU73               216.00      0.48      0.46
  TU74               291.00      0.64      0.80
  TU75               291.00      0.64      0.80
  TU76               374.00      0.83      1.26
  TU77               374.00      0.83      1.26
  TU78                 0.00      0.00      0.00
  TU79                 0.00      0.00      0.00
  TU8                  0.00      0.00      0.00
  TU80                58.00      1.20      9.42
  TU81                58.00      0.49      1.08
  TU82                 0.00      0.00      0.00
  TU83                 0.00      0.00      0.00
  TU84                 0.00      0.00      0.00
  TU85                 0.00      0.00      0.00
  TU86                 0.00      0.00      0.00
  TU87                 0.00      0.00      0.00
  TU88                 0.00      0.00      0.00
  TU89                 0.00      0.00      0.00
  TU9                 55.00      0.93      5.22
  TU90                 0.00      0.00      0.00
  TU91                -0.00      0.00      0.00
  TU92                -0.00      0.00      0.00
  TU93                 0.00      0.00      0.00
  TU94                 0.00      0.00      0.00
  TU95                 0.00      0.00      0.00
  TU96                 0.00      0.00      0.00
  TU97                58.00      1.03      6.59
  TU98                58.00      0.66      2.25
  TU99                58.00      0.13      0.04
  TU4000               0.00      0.00      0.00
   
  Analysis ended Fri Dec  1 08:58:23 2023
