  Page 1                                    Fri Dec  1 08:58:17 2023

  ******************************************************************
  *                           E P A N E T                          *
  *                   Hydraulic and Water Quality                  *
  *                   Analysis for Pipe Networks                   *
  *                         Version 2.2                            *
  ******************************************************************
  
  Analysis begun Fri Dec  1 08:58:17 2023

   
  Node Results:
  ----------------------------------------------
                     Demand      Head  Pressure
  Node                 m3/h         m         m
  ----------------------------------------------
  3661                 0.00    428.48     50.34
  482                  0.00    428.27     82.27
  661                  0.00    426.03     96.03
  6610                 0.00    427.37      1.88
  6611                 0.00    427.22     92.22
  6612                 0.00    427.39     65.02
  6613                 0.00    426.18     71.18
  6615                 0.00    427.57     88.57
  6616                 0.00    427.13     66.13
  6617                 0.00    426.99     83.99
  6618                 0.00    427.76     79.76
  662                  0.00    428.32    100.32
  6620                 0.00    426.81    118.81
  6621                 0.00    426.89     98.89
  6622                 0.00    426.91     89.91
  6623                 0.00    426.93     75.93
  6624                 0.00    426.94     74.94
  6625                 0.00    426.39    114.39
  6626                 0.00    426.51    105.51
  6627                 0.00    424.82    103.82
  6628                 0.00    428.20     89.20
  6629                 0.00    428.20     88.20
  663                  0.00    427.96     86.96
  6630                 0.00    427.93      3.07
  6632                 0.00    428.29     88.29
  6633                 0.00    428.66     66.02
  6634                 0.00    428.69     57.69
  6635                 0.00    428.53     76.53
  6636                 0.00    428.53     72.53
  6637                 0.00    428.42     61.42
  6639                 0.00    427.37     67.37
  664                  0.00    427.70     79.70
  6640                 0.00    427.37     67.37
  6641                 0.00    427.37     68.69
  6642                 0.00    427.37     71.37
  6643                 0.00    427.50     75.50
  6644                 0.00    427.60     75.60
  6645                 0.00    427.65     77.65
  6646                 0.00    427.39     80.37
  6648                 0.00    427.39     81.38
  6649                 0.00    426.15     87.15
  665                  0.00    427.54     82.54
  666                  0.00    428.24     88.24
  6665                 0.00    428.12     62.98
  6666                 0.00    428.30     60.64
  667                  0.00    427.58     75.58
  668                  0.00    426.02     96.02
  669                  0.00    428.20     83.20
  1                    0.00    428.49     98.49
  10                   0.00    427.50     75.50
  100                  0.00    427.37     72.37
  100B                 0.00    427.37     69.37
  101                 94.00    425.91     72.91
  103                  0.00    427.18     88.18
  104                  0.00    427.18     88.18
  105                  0.00    426.18     71.18
  106                 55.00    426.10     71.10
  107                 51.00    427.42     88.42
  108                 58.00    426.74     91.18
  109                  0.00    427.38     90.38
  11B                143.00    427.50     84.50
  110                 68.00    427.73     81.73
  111                  0.00    427.63     89.65
  112                  0.00    427.68     85.68
  113                  0.00    427.50    104.50
  114                  0.00    427.24     79.24
  115                  0.00    427.13     81.13
  116                  0.00    427.20     82.20
  117                 82.00    426.88     83.88
  118                  0.00    426.99     87.99
  119                  0.00    426.99    104.18
  12                   0.00    427.38     97.04
  121                  0.00    427.30     77.30
  122                  0.00    427.20     80.20
  123                  0.00    427.20     81.20
  125                  0.00    427.28     76.28
  126                  0.00    426.70     78.70
  127                167.00    424.35     81.02
  128                  0.00    427.09     65.09
  129                  0.00    426.46     70.46
  130                118.00    426.12     85.04
  130B                70.00    426.29     73.29
  132                 53.00    420.69     87.69
  134                 60.00    424.53    103.53
  135                  0.00    424.25    108.25
  137                 57.00    420.53    111.53
  139                  0.00    426.02     66.02
  14                  64.00    427.18     89.18
  140                  0.00    426.02     75.02
  141                  0.00    426.02     74.02
  142                  0.00    426.02     65.02
  143                 55.00    418.40     77.43
  144                 84.00    426.76     67.76
  146                  0.00    426.66     80.66
  147                 61.00    426.24    105.24
  148                 67.00    426.62     93.62
  149                  0.00    426.39    113.18
  15                   0.00    427.22     92.22
  150                  0.00    426.25    118.18
  151                  0.00    425.97    120.73
  152                 74.00    423.76    113.74
  153                  0.00    424.51    114.51
  154                  0.00    426.88    101.88
  157                 40.00    426.21    123.21
  158A                 0.00    426.81    105.81
  158B                 0.00    426.81    105.81
  16B                134.00    427.22     93.22
  160                 56.00    428.40     61.40
  162                  0.00    428.35     60.35
  163                 89.00    428.00     54.00
  164                  0.00    428.26     68.60
  165                  0.00    428.12     66.82
  166                 81.00    428.12     67.11
  167                  0.00    428.12     57.48
  169                  0.00    428.24     61.74
  17A                  0.00    427.22     92.22
  170                102.00    428.46     69.46
  17B                  0.00    427.22     92.22
  171                  0.00    428.53     76.53
  172                  0.00    428.53     88.53
  18B                  0.00    427.22    102.22
  19                   0.00    428.66     70.66
  2                    0.00    428.36    102.36
  20                   0.00    428.48     64.48
  2002                 0.00    428.20     78.20
  2003                 0.00    428.20     78.20
  21                   0.00    428.39     65.66
  22                  54.00    428.38     66.78
  222                 66.00    428.19     78.19
  24                   0.00    428.09     84.09
  25                   0.00    427.95     82.95
  26                   0.00    427.76     79.76
  27                   0.00    427.80     77.80
  28                  53.00    427.63     79.63
  29                  45.00    427.20     71.20
  3                    0.00    428.17     87.82
  30                   0.00    427.15     66.15
  3002                 0.00    428.48     42.48
  3004                 0.00    428.48     42.48
  3005                 0.00    428.48     42.48
  3008                 0.00    428.48     43.48
  3012                 0.00    428.48     57.75
  3013                 0.00    428.48     63.55
  3016                 0.00    428.55     63.55
  3017               145.00    428.76     46.76
  3018                54.00    428.45     51.45
  3019                 0.00    428.48     59.09
  3020                 0.00    428.48     60.37
  3024                 0.00    428.48     63.54
  31                   0.00    427.01     69.22
  3152                 0.00    428.48     62.28
  32                   0.00    427.06     69.06
  34                  55.00    426.82     75.80
  35                   0.00    426.91     89.91
  36                   0.00    426.89     98.89
  39                   0.00    426.86    113.86
  41                   0.00    426.81    119.81
  46                   0.00    428.60     52.60
  47                   0.00    428.24     70.06
  48                   0.00    428.21     84.21
  49                   0.00    427.76     75.76
  5                    0.00    428.06     81.06
  52                  58.00    427.74     76.74
  53                   0.00    428.69     72.69
  54                   0.00    428.60     83.60
  55                   0.00    428.26     98.26
  56                   0.00    428.15     94.15
  58                 125.00    427.20     94.20
  59                   0.00    427.20     98.20
  6                    0.00    427.60     75.60
  60                   0.00    428.17     83.17
  61                   0.00    428.17     89.17
  62                   0.00    427.25     73.25
  64                   0.00    428.31     97.31
  65                   0.00    428.29     88.29
  66                   0.00    428.29     89.29
  67                   0.00    428.26     96.26
  68                   0.00    427.93     88.93
  69                  51.00    427.33     76.33
  7                    0.00    427.81     74.81
  70                   0.00    428.20     88.20
  71                  65.00    427.13     90.13
  72                 100.00    427.25     71.25
  73                 141.00    427.48     72.48
  77                 131.00    423.02     67.02
  78                   0.00    427.25     87.11
  79                  45.00    427.81     74.81
  8                    0.00    427.65     77.65
  80                   0.00    427.69     78.69
  81                  52.00    426.37     67.37
  82                   0.00    427.39     69.39
  85                   0.00    428.20     89.20
  86                   0.00    428.20     91.20
  87                 115.00    427.40     67.40
  88                   0.00    427.39     74.39
  89                   0.00    427.37     60.37
  90                   0.00    427.37     71.37
  91                   0.00    427.37     55.37
  92                   0.00    427.37     67.37
  91B                  0.00    427.37     67.37
  94                  74.00    425.58     86.58
  95                   0.00    424.25     81.25
  97                 135.00    417.00     86.00
  99                 146.00    424.70     74.70
  74                  85.00    424.84     66.13
  1074                 0.00    427.47     69.47
  11A                104.00    422.84     79.84
  1011                 0.00    422.97     79.97
  0                -3882.00    429.00      0.00  Reservoir
   
   
  Link Results:
  ----------------------------------------------
                       Flow  Velocity  Headloss
  Link                 m3/h       m/s    /1000m
  ----------------------------------------------
  TU1                 -0.00      0.00      0.00
  TU10                 0.00      0.00      0.00
  TU100              116.00      0.26      0.15
  TU101              116.00      0.16      0.05
  TU102                0.00      0.00      0.00
  TU103              116.00      0.16      0.05
  TU104              116.00      0.16      0.05
  TU105             1618.00      0.71      0.36
  TU106             1618.00      0.71      0.36
  TU107                0.00      0.00      0.00
  TU108             1618.00      0.71      0.36
  TU109             1734.00      0.76      0.41
  TU11               149.00      0.68      1.37
  TU110             1734.00      0.76      0.41
  TU111                0.00      0.00      0.00
  TU112              125.00      0.91      3.09
  TU113              125.00      0.66      1.43
  TU114              125.00      0.66      1.43
  TU115             1859.00      0.66      0.28
  TU116             1859.00      0.66      0.28
  TU117               -0.00      0.00      0.00
  TU118                0.00      0.00      0.00
  TU119             1859.00      0.66      0.28
  TU12                 0.00      0.00      0.00
  TU120             1859.00      0.66      0.28
  TU121                0.00      0.00      0.00
  TU122                0.00      0.00      0.00
  TU123                0.00      0.00      0.00
  TU124               58.00      0.66      2.26
  TU125               58.00      0.42      0.77
  TU126               58.00      0.27      0.25
  TU127               58.00      0.27      0.25
  TU128                0.00      0.00      0.00
  TU129                0.00      0.00      0.00
  TU13                 0.00      0.00      0.00
  TU130               -0.00      0.00      0.00
  TU131               81.00      0.35      0.40
  TU132                0.00      0.00      0.00
  TU133               81.00      0.35      0.40
  TU134               -0.00      0.00      0.00
  TU135              170.00      0.38      0.30
  TU136              226.00      0.50      0.50
  TU137              284.00      0.40      0.26
  TU138              386.00      0.55      0.45
  TU139              386.00      0.38      0.19
  TU14               213.00      0.47      0.45
  TU140              440.00      0.43      0.24
  TU141                0.00      0.00      0.00
  TU142              231.00      0.62      0.85
  TU143               -0.00      0.00      0.00
  TU144               -0.00      0.00      0.00
  TU145               -0.00      0.00      0.00
  TU146               -0.00      0.00      0.00
  TU147               -0.00      0.00      0.00
  TU148                0.00      0.00      0.00
  TU149               -0.00      0.00      0.00
  TU15                -0.00      0.00      0.00
  TU150               -0.00      0.00      0.00
  TU151               -0.00      0.00      0.00
  TU152              146.00      1.67     12.15
  TU15301            346.00      0.49      0.37
  TU15302            261.00      0.37      0.22
  TU1074              85.00      1.12      6.35
  TU154              487.00      0.48      0.29
  TU155                0.00      0.00      0.00
  TU156              487.00      0.48      0.29
  TU157              718.00      0.71      0.58
  TU158                0.00      0.00      0.00
  TU159              718.00      0.71      0.58
  TU16              3882.00      0.70      0.21
  TU160                0.00      0.00      0.00
  TU161              718.00      0.71      0.58
  TU162              900.00      0.65      0.42
  TU163              855.00      0.62      0.38
  TU164              900.00      0.65      0.42
  TU166               52.00      1.07      7.72
  TU167               -0.00      0.00      0.00
  TU168                0.00      0.00      0.00
  TU169               52.00      0.44      0.89
  TU17                58.00      1.03      6.59
  TU170               52.00      0.24      0.21
  TU171              803.00      0.58      0.34
  TU17201            239.00      3.14     42.86
  TU17202            135.00      1.78     14.85
  TU1011A            104.00      1.37      9.19
  TU173              239.00      1.75     10.15
  TU174               74.00      1.32     10.28
  TU175              313.00      1.43      5.33
  TU176              347.00      0.34      0.15
  TU177              490.00      0.48      0.29
  TU178              347.00      0.34      0.15
  TU179                0.00      0.00      0.00
  TU18                58.00      0.66      2.25
  TU180                0.00      0.00      0.00
  TU181                0.00      0.00      0.00
  TU182                0.00      0.00      0.00
  TU183                0.00      0.00      0.00
  TU184                0.00      0.00      0.00
  TU185              249.00      0.55      0.60
  TU186               81.00      0.22      0.13
  TU187              170.00      0.38      0.30
  TU188             1209.00      0.87      0.72
  TU189             1209.00      0.87      0.72
  TU19                51.00      0.91      5.21
  TU190               74.00      0.97      4.94
  TU191               -0.00      0.00      0.00
  TU192                0.00      0.00      0.00
  TU193                0.00      0.00      0.00
  TU194               -0.00      0.00      0.00
  TU195                0.00      0.00      0.00
  TU196                0.00      0.00      0.00
  TU197               -0.00      0.00      0.00
  TU198                0.00      0.00      0.00
  TU199                0.00      0.00      0.00
  TU2                  0.00      0.00      0.00
  TU20               109.00      0.80      2.41
  TU200               -0.00      0.00      0.00
  TU201                0.00      0.00      0.00
  TU203               54.00      0.91      5.05
  TU204             1438.00      0.63      0.29
  TU205             1438.00      0.63      0.29
  TU21                74.00      0.62      1.68
  TU22              1318.00      0.73      0.44
  TU23              1384.00      0.76      0.48
  TU24              1438.00      0.79      0.51
  TU25              1438.00      0.79      0.52
  TU26               794.00      0.78      0.70
  TU27               794.00      0.78      0.70
  TU28               839.00      0.82      0.77
  TU29               892.00      0.88      0.87
  TU3                  0.00      0.00      0.00
  TU30                 0.00      0.00      0.00
  TU31                -0.00      0.00      0.00
  TU32                82.00      0.94      4.22
  TU33                82.00      0.38      0.46
  TU34                82.00      0.38      0.46
  TU35                 0.00      0.00      0.00
  TU36                 0.00      0.00      0.00
  TU37                82.00      0.23      0.15
  TU38                82.00      0.23      0.15
  TU39               167.00      1.91     15.57
  TU4                146.00      0.21      0.08
  TU40               167.00      1.22      5.25
  TU41               249.00      0.55      0.60
  TU42                89.00      0.62      1.46
  TU43               249.00      0.35      0.20
  TU44               249.00      0.35      0.20
  TU45               317.00      0.45      0.32
  TU46               317.00      0.45      0.32
  TU47                 0.00      0.00      0.00
  TU48                 0.00      0.00      0.00
  TU49                 0.00      0.00      0.00
  TU5                146.00      0.21      0.08
  TU50                40.00      0.82      4.79
  TU51                40.00      0.21      0.18
  TU52                40.00      0.13      0.06
  TU53                40.00      0.13      0.06
  TU54                 0.00      0.00      0.00
  TU55                40.00      0.13      0.06
  TU56                 0.00      0.00      0.00
  TU57                40.00      0.11      0.04
  TU58                55.00      0.98      5.98
  TU59                95.00      0.27      0.19
  TU6                249.00      0.35      0.20
  TU60                74.00      1.53     14.71
  TU61                 0.00      0.00      0.00
  TU62                74.00      0.39      0.55
  TU63                 0.00      0.00      0.00
  TU64                74.00      0.39      0.55
  TU65                61.00      1.26     10.32
  TU66               135.00      0.45      0.52
  TU67               202.00      0.57      0.75
  TU68               202.00      0.57      0.75
  TU69               297.00      0.42      0.28
  TU7                131.00      2.20     25.66
  TU70               297.00      0.42      0.28
  TU71               297.00      0.42      0.28
  TU72               225.00      0.50      0.50
  TU73               343.00      0.76      1.08
  TU74               413.00      0.91      1.51
  TU75               413.00      0.91      1.51
  TU76               497.00      1.10      2.12
  TU77               497.00      1.10      2.12
  TU78                57.00      1.17      9.12
  TU79                57.00      0.75      3.07
  TU8                 94.00      1.01      4.73
  TU80                60.00      1.24     10.02
  TU81               117.00      0.98      3.86
  TU82                55.00      0.98      5.98
  TU83               108.00      1.42      9.85
  TU84                 0.00      0.00      0.00
  TU85                 0.00      0.00      0.00
  TU86                 0.00      0.00      0.00
  TU87                 0.00      0.00      0.00
  TU88               108.00      0.24      0.13
  TU89                 0.00      0.00      0.00
  TU9                 55.00      0.93      5.22
  TU90                 0.00      0.00      0.00
  TU91                -0.00      0.00      0.00
  TU92                -0.00      0.00      0.00
  TU93                 0.00      0.00      0.00
  TU94                65.00      0.74      2.77
  TU95                65.00      0.18      0.10
  TU96                 0.00      0.00      0.00
  TU97                51.00      0.91      5.21
  TU98                51.00      0.58      1.79
  TU99               116.00      0.26      0.15
  TU4000               0.00      0.00      0.00
   
  Analysis ended Fri Dec  1 08:58:17 2023
