  Page 1                                    Fri Dec  1 09:11:20 2023

  ******************************************************************
  *                           E P A N E T                          *
  *                   Hydraulic and Water Quality                  *
  *                   Analysis for Pipe Networks                   *
  *                         Version 2.2                            *
  ******************************************************************
  
  Analysis begun Fri Dec  1 09:11:20 2023

   
  Node Results:
  ----------------------------------------------
                     Demand      Head  Pressure
  Node                 m3/h         m         m
  ----------------------------------------------
  3661                 0.00    428.98     50.84
  482                  0.00    428.70     82.70
  661                  0.00    428.93     98.93
  6610                 0.00    426.57      0.45
  6611                 0.00    428.92     93.92
  6612                 0.00    428.60     66.23
  6613                 0.00    428.92     73.92
  6615                 0.00    428.97     89.97
  6616                 0.00    428.93     67.93
  6617                 0.00    428.92     85.92
  6618                 0.00    428.96     80.96
  662                  0.00    428.95    100.95
  6620                 0.00    427.83    119.83
  6621                 0.00    428.53    100.53
  6622                 0.00    428.69     91.69
  6623                 0.00    428.85     77.85
  6624                 0.00    428.89     76.89
  6625                 0.00    428.89    116.89
  6626                 0.00    428.89    107.89
  6627                 0.00    428.93    107.93
  6628                 0.00    428.95     89.95
  6629                 0.00    428.95     88.95
  663                  0.00    428.92     87.92
  6630                 0.00    428.95      4.09
  6632                 0.00    428.95     88.95
  6633                 0.00    428.98     66.34
  6634                 0.00    428.98     57.98
  6635                 0.00    428.96     76.96
  6636                 0.00    428.96     72.96
  6637                 0.00    428.95     61.95
  6639                 0.00    428.01     68.01
  664                  0.00    428.92     80.92
  6640                 0.00    427.51     67.51
  6641                 0.00    428.40     69.72
  6642                 0.00    428.40     72.40
  6643                 0.00    428.77     76.77
  6644                 0.00    428.81     76.81
  6645                 0.00    428.82     78.82
  6646                 0.00    428.92     81.90
  6648                 0.00    428.92     82.91
  6649                 0.00    428.83     89.83
  665                  0.00    428.92     83.92
  666                  0.00    428.95     88.95
  6665                 0.00    428.95     63.81
  6666                 0.00    428.95     61.29
  667                  0.00    428.80     76.80
  668                  0.00    428.93     98.93
  669                  0.00    428.95     83.95
  1                    0.00    428.97     98.97
  10                   0.00    428.77     76.77
  100                  0.00    428.40     73.40
  100B               112.00    426.66     68.66
  101                  0.00    428.92     75.92
  103                  0.00    428.92     89.92
  104                  0.00    428.92     89.92
  105                  0.00    428.92     73.92
  106                  0.00    428.92     73.92
  107                  0.00    428.97     89.97
  108                  0.00    428.97     93.41
  109                  0.00    428.97     91.97
  11B                  0.00    428.92     85.92
  110                  0.00    428.95     82.95
  111                  0.00    428.95     90.97
  112                  0.00    428.95     86.95
  113                  0.00    428.94    105.94
  114                  0.00    428.92     80.92
  115                  0.00    428.92     82.92
  116                  0.00    428.92     83.92
  117                  0.00    428.92     85.92
  118                  0.00    428.92     89.92
  119                  0.00    428.92    106.11
  12                   0.00    428.92     98.58
  121                 60.00    428.92     78.92
  122                  0.00    428.92     81.92
  123                  0.00    428.92     82.92
  125                  0.00    428.92     77.92
  126                  0.00    428.92     80.92
  127                  0.00    428.92     85.59
  128                  0.00    428.93     66.93
  129                  0.00    428.93     72.93
  130                  0.00    428.93     87.85
  130B                 0.00    428.93     75.93
  132                  0.00    428.93     95.93
  134                  0.00    428.93    107.93
  135                  0.00    428.93    112.93
  137                  0.00    428.93    119.93
  139                  0.00    428.93     68.93
  14                   0.00    428.92     90.92
  140                  0.00    428.93     77.93
  141                  0.00    428.93     76.93
  142                  0.00    428.93     67.93
  143                  0.00    428.93     87.96
  144                  0.00    428.93     69.93
  146                  0.00    428.89     82.89
  147                  0.00    428.89    107.89
  148                  0.00    428.89     95.89
  149                  0.00    428.89    115.68
  15                   0.00    428.92     93.92
  150                  0.00    428.89    120.82
  151                  0.00    428.89    123.65
  152                  0.00    428.89    118.87
  153                  0.00    428.89    118.89
  154                  0.00    428.46    103.46
  157                  0.00    427.83    124.83
  158A                68.00    417.86     96.86
  158B                68.00    417.84     96.84
  16B                  0.00    428.92     94.92
  160                  0.00    428.95     61.95
  162                  0.00    428.95     60.95
  163                  0.00    428.95     54.95
  164                  0.00    428.95     69.29
  165                  0.00    428.95     67.65
  166                  0.00    428.95     67.94
  167                  0.00    428.95     58.31
  169                  0.00    428.95     62.45
  17A                  0.00    428.92     93.92
  170                  0.00    428.96     69.96
  17B                  0.00    428.92     93.92
  171                  0.00    428.96     76.96
  172                  0.00    428.96     88.96
  18B                  0.00    428.92    103.92
  19                   0.00    428.98     70.98
  2                    0.00    428.96    102.96
  20                   0.00    428.98     64.98
  2002                 0.00    428.95     78.95
  2003                 0.00    428.95     78.95
  21                   0.00    428.98     66.25
  22                   0.00    428.98     67.38
  222                  0.00    428.97     78.97
  24                   0.00    428.97     84.97
  25                   0.00    428.96     83.96
  26                   0.00    428.96     80.96
  27                   0.00    428.96     78.96
  28                   0.00    428.95     80.95
  29                   0.00    428.94     72.94
  3                    0.00    428.94     88.59
  30                   0.00    428.93     67.93
  3002                 0.00    428.98     42.98
  3004                 0.00    428.98     42.98
  3005                 0.00    428.98     42.98
  3008                 0.00    428.98     43.98
  3012                 0.00    428.98     58.25
  3013                 0.00    428.98     64.05
  3016                 0.00    428.98     63.98
  3017                 0.00    428.99     46.99
  3018                71.00    428.71     51.71
  3019                 0.00    428.98     59.59
  3020                 0.00    428.98     60.87
  3024                 0.00    428.98     64.04
  31                   0.00    428.90     71.11
  3152                 0.00    428.98     62.78
  32                   0.00    428.92     70.92
  34                   0.00    428.85     77.83
  35                   0.00    428.69     91.69
  36                   0.00    428.53    100.53
  39                   0.00    428.23    115.23
  41                   0.00    427.60    120.60
  46                   0.00    428.96     52.96
  47                   0.00    428.95     70.77
  48                   0.00    428.60     84.60
  49                  79.00    427.81     75.81
  5                    0.00    428.93     81.93
  52                   0.00    427.81     76.81
  53                   0.00    428.98     72.98
  54                   0.00    428.98     83.98
  55                   0.00    428.97     98.97
  56                   0.00    428.97     94.97
  58                   0.00    428.97     95.97
  59                   0.00    428.97     99.97
  6                   56.00    428.62     76.62
  60                   0.00    428.94     83.94
  61                   0.00    428.94     89.94
  62                   0.00    428.80     74.80
  64                   0.00    428.95     97.95
  65                   0.00    428.95     88.95
  66                   0.00    428.95     89.95
  67                   0.00    428.95     96.95
  68                   0.00    428.95     89.95
  69                   0.00    428.95     77.95
  7                    0.00    428.92     75.92
  70                   0.00    428.95     88.95
  71                   0.00    428.95     91.95
  72                   0.00    428.80     72.80
  73                   0.00    428.76     73.76
  77                   0.00    428.80     72.80
  78                   0.00    428.80     88.66
  79                   0.00    428.92     75.92
  8                    0.00    428.82     78.82
  80                   0.00    428.92     79.92
  81                   0.00    428.92     69.92
  82                   0.00    428.92     70.92
  85                   0.00    428.95     89.95
  86                   0.00    428.95     91.95
  87                   0.00    428.65     68.65
  88                   0.00    428.60     75.60
  89                   0.00    428.49     61.49
  90                   0.00    428.40     72.40
  91                   0.00    428.01     56.01
  92                   0.00    426.57     66.57
  91B                208.00    426.12     66.12
  94                   0.00    428.83     89.83
  95                   0.00    428.65     85.65
  97                   0.00    428.53     97.53
  99                   0.00    428.49     78.49
  74                   0.00    428.75     70.04
  1074                 0.00    428.75     70.75
  11A                 66.00    428.48     85.48
  1011                 0.00    428.53     85.53
  0                 -788.00    429.00      0.00  Reservoir
   
   
  Link Results:
  ----------------------------------------------
                       Flow  Velocity  Headloss
  Link                 m3/h       m/s    /1000m
  ----------------------------------------------
  TU1                 -0.00      0.00      0.00
  TU10                 0.00      0.00      0.00
  TU100                0.00      0.00      0.00
  TU101                0.00      0.00      0.00
  TU102                0.00      0.00      0.00
  TU103                0.00      0.00      0.00
  TU104                0.00      0.00      0.00
  TU105              442.00      0.19      0.03
  TU106              442.00      0.19      0.03
  TU107                0.00      0.00      0.00
  TU108              442.00      0.19      0.03
  TU109              442.00      0.19      0.03
  TU11                -0.00      0.00      0.00
  TU110              442.00      0.19      0.03
  TU111                0.00      0.00      0.00
  TU112               -0.00      0.00      0.00
  TU113                0.00      0.00      0.00
  TU114                0.00      0.00      0.00
  TU115              442.00      0.16      0.02
  TU116              442.00      0.16      0.02
  TU117               -0.00      0.00      0.00
  TU118                0.00      0.00      0.00
  TU119              442.00      0.16      0.02
  TU12                 0.00      0.00      0.00
  TU120              442.00      0.16      0.02
  TU121                0.00      0.00      0.00
  TU122                0.00      0.00      0.00
  TU123               -0.00      0.00      0.00
  TU124                0.00      0.00      0.00
  TU125               79.00      0.58      1.34
  TU126               79.00      0.36      0.43
  TU127               79.00      0.36      0.43
  TU128                0.00      0.00      0.00
  TU129                0.00      0.00      0.00
  TU13                 0.00      0.00      0.00
  TU130                0.00      0.00      0.00
  TU131               -0.00      0.00      0.00
  TU132                0.00      0.00      0.00
  TU133               -0.00      0.00      0.00
  TU134              208.00      2.25     20.39
  TU135               -0.00      0.00      0.00
  TU136                0.00      0.00      0.00
  TU137               79.00      0.11      0.03
  TU138               79.00      0.11      0.03
  TU139               79.00      0.08      0.01
  TU14                -0.00      0.00      0.00
  TU140              150.00      0.15      0.03
  TU141                0.00      0.00      0.00
  TU142                0.00      0.00      0.00
  TU143               -0.00      0.00      0.00
  TU144              112.00      1.21      6.52
  TU145              208.00      1.44      6.89
  TU146              320.00      1.39      4.92
  TU147              320.00      0.86      1.54
  TU148               -0.00      0.00      0.00
  TU149               -0.00      0.00      0.00
  TU15                -0.00      0.00      0.00
  TU150               -0.00      0.00      0.00
  TU151              320.00      0.45      0.32
  TU152               -0.00      0.00      0.00
  TU15301            320.00      0.45      0.32
  TU15302            320.00      0.45      0.32
  TU1074               0.00      0.00      0.00
  TU154              320.00      0.31      0.13
  TU155               -0.00      0.00      0.00
  TU156              320.00      0.31      0.13
  TU157              320.00      0.31      0.13
  TU158               56.00      1.00      6.18
  TU159              376.00      0.37      0.18
  TU16               788.00      0.14      0.01
  TU160                0.00      0.00      0.00
  TU161              376.00      0.37      0.18
  TU162               66.00      0.05      0.00
  TU163               66.00      0.05      0.00
  TU164               66.00      0.05      0.01
  TU166               -0.00      0.00      0.00
  TU167               -0.00      0.00      0.00
  TU168                0.00      0.00      0.00
  TU169                0.00      0.00      0.00
  TU17                 0.00      0.00      0.00
  TU170                0.00      0.00      0.00
  TU171               66.00      0.05      0.00
  TU17201             66.00      0.87      4.01
  TU17202              0.00      0.00      0.00
  TU1011A             66.00      0.87      4.01
  TU173               66.00      0.48      0.97
  TU174               -0.00      0.00      0.00
  TU175               66.00      0.30      0.31
  TU176               -0.00      0.00      0.00
  TU177               -0.00      0.00      0.00
  TU178               -0.00      0.00      0.00
  TU179                0.00      0.00      0.00
  TU18                 0.00      0.00      0.00
  TU180                0.00      0.00      0.00
  TU181                0.00      0.00      0.00
  TU182                0.00      0.00      0.00
  TU183                0.00      0.00      0.00
  TU184                0.00      0.00      0.00
  TU185               60.00      0.13      0.05
  TU186               -0.00      0.00      0.00
  TU187               -0.00      0.00      0.00
  TU188              196.00      0.14      0.03
  TU189              196.00      0.14      0.03
  TU19                -0.00      0.00      0.00
  TU190               -0.00      0.00      0.00
  TU191               -0.00      0.00      0.00
  TU192                0.00      0.00      0.00
  TU193                0.00      0.00      0.00
  TU194               -0.00      0.00      0.00
  TU195                0.00      0.00      0.00
  TU196                0.00      0.00      0.00
  TU197               -0.00      0.00      0.00
  TU198                0.00      0.00      0.00
  TU199                0.00      0.00      0.00
  TU2                  0.00      0.00      0.00
  TU20                 0.00      0.00      0.00
  TU200               -0.00      0.00      0.00
  TU201                0.00      0.00      0.00
  TU203               71.00      1.19      8.32
  TU204              196.00      0.09      0.01
  TU205              196.00      0.09      0.01
  TU21                -0.00      0.00      0.00
  TU22               196.00      0.11      0.01
  TU23               196.00      0.11      0.01
  TU24               196.00      0.11      0.01
  TU25               196.00      0.11      0.01
  TU26               136.00      0.13      0.03
  TU27               136.00      0.13      0.03
  TU28               136.00      0.13      0.03
  TU29               136.00      0.13      0.03
  TU3                  0.00      0.00      0.00
  TU30                 0.00      0.00      0.00
  TU31                -0.00      0.00      0.00
  TU32                 0.00      0.00      0.00
  TU33                 0.00      0.00      0.00
  TU34                 0.00      0.00      0.00
  TU35                 0.00      0.00      0.00
  TU36                 0.00      0.00      0.00
  TU37                 0.00      0.00      0.00
  TU38                 0.00      0.00      0.00
  TU39                -0.00      0.00      0.00
  TU4                320.00      0.45      0.32
  TU40                -0.00      0.00      0.00
  TU41                -0.00      0.00      0.00
  TU42                 0.00      0.00      0.00
  TU43                60.00      0.08      0.02
  TU44                60.00      0.08      0.02
  TU45                60.00      0.08      0.02
  TU46                60.00      0.08      0.02
  TU47                -0.00      0.00      0.00
  TU48               136.00      1.79     15.06
  TU49               136.00      1.14      5.08
  TU5                320.00      0.45      0.32
  TU50                 0.00      0.00      0.00
  TU51               136.00      0.72      1.66
  TU52               136.00      0.45      0.53
  TU53               136.00      0.45      0.53
  TU54                 0.00      0.00      0.00
  TU55               136.00      0.45      0.53
  TU56                 0.00      0.00      0.00
  TU57               136.00      0.39      0.37
  TU58                 0.00      0.00      0.00
  TU59               136.00      0.39      0.37
  TU6                 60.00      0.08      0.02
  TU60                 0.00      0.00      0.00
  TU61                 0.00      0.00      0.00
  TU62                -0.00      0.00      0.00
  TU63                 0.00      0.00      0.00
  TU64                -0.00      0.00      0.00
  TU65                 0.00      0.00      0.00
  TU66                 0.00      0.00      0.00
  TU67                -0.00      0.00      0.00
  TU68                 0.00      0.00      0.00
  TU69               136.00      0.19      0.07
  TU7                  0.00      0.00      0.00
  TU70               136.00      0.19      0.07
  TU71               136.00      0.19      0.07
  TU72                 0.00      0.00      0.00
  TU73                 0.00      0.00      0.00
  TU74                 0.00      0.00      0.00
  TU75                 0.00      0.00      0.00
  TU76                 0.00      0.00      0.00
  TU77                 0.00      0.00      0.00
  TU78                 0.00      0.00      0.00
  TU79                 0.00      0.00      0.00
  TU8                  0.00      0.00      0.00
  TU80                 0.00      0.00      0.00
  TU81                 0.00      0.00      0.00
  TU82                 0.00      0.00      0.00
  TU83                 0.00      0.00      0.00
  TU84                 0.00      0.00      0.00
  TU85                 0.00      0.00      0.00
  TU86                 0.00      0.00      0.00
  TU87                 0.00      0.00      0.00
  TU88                 0.00      0.00      0.00
  TU89                 0.00      0.00      0.00
  TU9                  0.00      0.00      0.00
  TU90                 0.00      0.00      0.00
  TU91                -0.00      0.00      0.00
  TU92                 0.00      0.00      0.00
  TU93                 0.00      0.00      0.00
  TU94                 0.00      0.00      0.00
  TU95                 0.00      0.00      0.00
  TU96                 0.00      0.00      0.00
  TU97                 0.00      0.00      0.00
  TU98                 0.00      0.00      0.00
  TU99                 0.00      0.00      0.00
  TU4000              68.00      0.89      4.23
   
  Analysis ended Fri Dec  1 09:11:20 2023
